Circuit: * C:\Users\Alexey Revinski\Documents\1_CLASS\BME 390-2\IAR Projects\BME390\LTSpice\PulseGenerator1\PulseGen1.asc

Instance "m:m2:1": Width narrower than recommended for a level 3 MOSFET.
Instance "m:m3:1": Width narrower than recommended for a level 3 MOSFET.
Direct Newton iteration for .op point succeeded.
Heightened Def Con from 0.000117597 to 0.000117598
Heightened Def Con from 0.000357175 to 0.000357176
Heightened Def Con from 0.000365698 ++++++++++++++++++++++++++to 0.000365698
Heightened Def Con from 0.000365698 ++++++++++++++++++++++++++to 0.000365698
Heightened Def Con from 0.000366465 ++++++++++++++++++++++++++to 0.000366465
Heightened Def Con from 0.000366465 ++++++++++++++++++++++++++to 0.000366465
Heightened Def Con from 0.000367231 ++++++++++++++++++++++++++to 0.000367231
Heightened Def Con from 0.000367231 ++++++++++++++++++++++++++to 0.000367231
Heightened Def Con from 0.000367231 ++++++++++++++++++++++++++to 0.000367231
Heightened Def Con from 0.000367994 ++++++++++++++++++++++++++to 0.000367994
Heightened Def Con from 0.000367994 ++++++++++++++++++++++++++to 0.000367994
Heightened Def Con from 0.000367994 ++++++++++++++++++++++++++to 0.000367994
Heightened Def Con from 0.000367994 ++++++++++++++++++++++++++to 0.000367994
Heightened Def Con from 0.000367994 ++++++++++++++++++++++++++to 0.000367994
Heightened Def Con from 0.000367994 ++++++++++++++++++++++++++to 0.000367994
Heightened Def Con from 0.000367994 ++++++++++++++++++++++++++to 0.000367994
Heightened Def Con from 0.000367994 ++++++++++++++++++++++++++to 0.000367994
Heightened Def Con from 0.000367994 ++++++++++++++++++++++++++to 0.000367994
Heightened Def Con from 0.000367994 +++++++++++++++++++++++++++to 0.000367994
Heightened Def Con from 0.000367994 ++++++++++++++++++++++++++to 0.000367994
Heightened Def Con from 0.000367994 ++++++++++++++++++++++++++to 0.000367994
Heightened Def Con from 0.000367994 ++++++++++++++++++++++++++to 0.000367994
Heightened Def Con from 0.000367994 ++++++++++++++++++++++++++to 0.000367994
Heightened Def Con from 0.000367994 ++++++++++++++++++++++++++to 0.000367994
Heightened Def Con from 0.000367994 +++++++++++++++++++++++++++to 0.000367994
Heightened Def Con from 0.000367994 ++++++++++++++++++++++++++to 0.000367994
Heightened Def Con from 0.000367994 ++++++++++++++++++++++++++to 0.000367994
Heightened Def Con from 0.000367994 ++++++++++++++++++++++++++to 0.000367994
Heightened Def Con from 0.000367994 ++++++++++++++++++++++++++to 0.000367994
Heightened Def Con from 0.000367994 ++++++++++++++++++++++++++to 0.000367994
Heightened Def Con from 0.000367994 ++++++++++++++++++++++++++to 0.000367994
Heightened Def Con from 0.000367994 +++++++++++++++++++++++++++to 0.000367994
Heightened Def Con from 0.000367994 ++++++++++++++++++++++++++to 0.000367994
Heightened Def Con from 0.000367994 ++++++++++++++++++++++++++to 0.000367994
Heightened Def Con from 0.000367994 +++++++++++++++++++++++++++to 0.000367994
Heightened Def Con from 0.000367994 ++++++++++++++++++++++++++to 0.000367994
Heightened Def Con from 0.000368756 +++++++++++++++++++++++++to 0.000368756
Heightened Def Con from 0.000368756 +++++++++++++++++++++++++to 0.000368756
Heightened Def Con from 0.000368756 +++++++++++++++++++++++++to 0.000368756
Heightened Def Con from 0.000368756 +++++++++++++++++++++++++to 0.000368756
Heightened Def Con from 0.000368756 +++++++++++++++++++++++++to 0.000368756
Heightened Def Con from 0.000368756 +++++++++++++++++++++++++to 0.000368756
Heightened Def Con from 0.000368756 +++++++++++++++++++++++++to 0.000368756
Heightened Def Con from 0.000368756 +++++++++++++++++++++++++to 0.000368756
Heightened Def Con from 0.000368756 ++++++++++++++++++++++++++to 0.000368756
Heightened Def Con from 0.000368756 +++++++++++++++++++++++++to 0.000368756
Heightened Def Con from 0.000368756 +++++++++++++++++++++++++to 0.000368756
Heightened Def Con from 0.000368756 +++++++++++++++++++++++++to 0.000368756
Heightened Def Con from 0.000368756 +++++++++++++++++++++++++to 0.000368756
Heightened Def Con from 0.000368756 +++++++++++++++++++++++++to 0.000368756
Heightened Def Con from 0.000368756 +++++++++++++++++++++++++to 0.000368756
Heightened Def Con from 0.000368756 +++++++++++++++++++++++++to 0.000368756
Heightened Def Con from 0.000368756 +++++++++++++++++++++++++++to 0.000368756
Heightened Def Con from 0.000368756 +++++++++++++++++++++++++to 0.000368756
Heightened Def Con from 0.000368756 +++++++++++++++++++++++++to 0.000368756
Heightened Def Con from 0.000368756 +++++++++++++++++++++++++to 0.000368756
Heightened Def Con from 0.000368756 +++++++++++++++++++++++++to 0.000368756
Heightened Def Con from 0.000368756 +++++++++++++++++++++++++to 0.000368756
Heightened Def Con from 0.000368756 +++++++++++++++++++++++++to 0.000368756
Heightened Def Con from 0.000368756 +++++++++++++++++++++++++to 0.000368756
Heightened Def Con from 0.000368756 +++++++++++++++++++++++++to 0.000368756
Heightened Def Con from 0.000368756 +++++++++++++++++++++++++to 0.000368756
Heightened Def Con from 0.000368756 ++++++++++++++++++++++++++to 0.000368756
Heightened Def Con from 0.000368756 +++++++++++++++++++++++++to 0.000368756
Heightened Def Con from 0.000368756 +++++++++++++++++++++++++to 0.000368756
Heightened Def Con from 0.000368756 +++++++++++++++++++++++++to 0.000368756
Heightened Def Con from 0.000368756 ++++++++++++++++++++++++++to 0.000368756
Heightened Def Con from 0.000368756 +++++++++++++++++++++++++to 0.000368756
Heightened Def Con from 0.000368756 +++++++++++++++++++++++++to 0.000368756
Heightened Def Con from 0.000368756 +++++++++++++++++++++++++to 0.000368756
Heightened Def Con from 0.000368756 +++++++++++++++++++++++++++to 0.000368756
Heightened Def Con from 0.000368756 +++++++++++++++++++++++++to 0.000368756
Heightened Def Con from 0.000368756 +++++++++++++++++++++++++++to 0.000368756
Heightened Def Con from 0.000368756 +++++++++++++++++++++++++to 0.000368756
Heightened Def Con from 0.000368756 +++++++++++++++++++++++++to 0.000368756
Heightened Def Con from 0.000368756 ++++++++++++++++++++++++++to 0.000368756
Heightened Def Con from 0.000368756 +++++++++++++++++++++++++to 0.000368756
Heightened Def Con from 0.000368756 +++++++++++++++++++++++++++to 0.000368756
Heightened Def Con from 0.000368756 +++++++++++++++++++++++++to 0.000368756
Heightened Def Con from 0.000368756 ++++++++++++++++++++++++++to 0.000368756
Heightened Def Con from 0.000368756 +++++++++++++++++++++++++to 0.000368756
Heightened Def Con from 0.000368756 +++++++++++++++++++++++++to 0.000368756
Heightened Def Con from 0.000368756 +++++++++++++++++++++++++to 0.000368756
Heightened Def Con from 0.000368756 ++++++++++++++++++++++++++to 0.000368756
Heightened Def Con from 0.000368756 +++++++++++++++++++++++++to 0.000368756
Heightened Def Con from 0.000368756 +++++++++++++++++++++++++to 0.000368756
Heightened Def Con from 0.000368756 +++++++++++++++++++++++++to 0.000368756
Heightened Def Con from 0.000368756 +++++++++++++++++++++++++to 0.000368756
Heightened Def Con from 0.000368756 +++++++++++++++++++++++++to 0.000368756
Heightened Def Con from 0.000368756 +++++++++++++++++++++++++to 0.000368756
Heightened Def Con from 0.000368756 +++++++++++++++++++++++++to 0.000368756
Heightened Def Con from 0.000368756 +++++++++++++++++++++++++to 0.000368756
Heightened Def Con from 0.000369516 to 0.000369516
Heightened Def Con from 0.000369516 +++to 0.000369516
Heightened Def Con from 0.000369516 +to 0.000369516
Heightened Def Con from 0.000374206 to 0.000374207
Heightened Def Con from 0.000374955 to 0.000374956
Heightened Def Con from 0.000375703 to 0.000375704
Heightened Def Con from 0.000377194 to 0.000377197
Heightened Def Con from 0.00040081 to 0.00040081
Heightened Def Con from 0.000805962 to 0.000805971
Heightened Def Con from 0.000806943 to 0.000806952
Heightened Def Con from 0.000831658 to 0.000831667
Heightened Def Con from 0.000833145 to 0.000833154
Heightened Def Con from 0.000863939 to 0.000863949
Heightened Def Con from 0.000876389 to 0.000876399
Heightened Def Con from 0.000877885 to 0.000877895
Heightened Def Con from 0.000878885 to 0.000878895
Heightened Def Con from 0.000881364 to 0.000881365
Heightened Def Con from 0.000890862 to 0.000890872
Heightened Def Con from 0.000924364 to 0.000924374
Heightened Def Con from 0.000929364 to 0.000929374
Heightened Def Con from 0.000961514 to 0.000961524
Heightened Def Con from 0.000968563 to 0.000968573
Heightened Def Con from 0.000974115 to 0.000974125
Heightened Def Con from 0.000982723 to 0.000982733
Heightened Def Con from 0.00098323 to 0.000983231
Heightened Def Con from 0.000991874 to 0.000991875
Heightened Def Con from 0.000994416 to 0.000994417
Heightened Def Con from 0.000996965 to 0.000996975
Heightened Def Con from 0.001019 to 0.00101901
Heightened Def Con from 0.00105672 to 0.00105672
Heightened Def Con from 0.00106086 to 0.00106087
Heightened Def Con from 0.00106608 to 0.00106608
Heightened Def Con from 0.00107128 to 0.00107128
Heightened Def Con from 0.00107233 to 0.00107233
Heightened Def Con from 0.00108645 to 0.00108646
Heightened Def Con from 0.00109012 to 0.00109012
Heightened Def Con from 0.001147 to 0.001147
Heightened Def Con from 0.00114891 to 0.00114891
Heightened Def Con from 0.00115383 to 0.00115383
Heightened Def Con from 0.00117041 to 0.00117041
Heightened Def Con from 0.00122267 to 0.00122267
Heightened Def Con from 0.00123264 to 0.00123264
Heightened Def Con from 0.00125252 to 0.00125253
Heightened Def Con from 0.00125302 to 0.00125303
Heightened Def Con from 0.00126728 to 0.00126728
Heightened Def Con from 0.00143608 to 0.00143609
Heightened Def Con from 0.00143696 to 0.00143696
Heightened Def Con from 0.00143703 to 0.00143704
Heightened Def Con from 0.00143753 to 0.00143754
Heightened Def Con from 0.00160629 to 0.00160629
Heightened Def Con from 0.00177939 to 0.0017794
Heightened Def Con from 0.00212258 to 0.00212259
Heightened Def Con from 0.0022927 to 0.0022927
Heightened Def Con from 0.00246414 to 0.00246414
Heightened Def Con from 0.00246556 to 0.00246556
Heightened Def Con from 0.00246563 to 0.00246563
Heightened Def Con from 0.00246613 to 0.00246613
Heightened Def Con from 0.00280704 to 0.00280704
Heightened Def Con from 0.00280853 to 0.00280853
Heightened Def Con from 0.0031514 to 0.00315141
Heightened Def Con from 0.0033228 to 0.0033228
Heightened Def Con from 0.00349454 to 0.00349455
Heightened Def Con from 0.00366593 to 0.00366594
Heightened Def Con from 0.00366601 to 0.00366601
Heightened Def Con from 0.00400786 to 0.00400786
Heightened Def Con from 0.00400935 to 0.00400935
Heightened Def Con from 0.00418108 to 0.00418108
Heightened Def Con from 0.00435081 to 0.00435081
Heightened Def Con from 0.00452361 to 0.00452361
Heightened Def Con from 0.00486714 to 0.00486714
Heightened Def Con from 0.00500165 to 0.00500165
Heightened Def Con from 0.00500689 to 0.00500689
Heightened Def Con from 0.00501484 to 0.00501485
Heightened Def Con from 0.00501755 to 0.00501755
Heightened Def Con from 0.00501904 to 0.00501904
Heightened Def Con from 0.00501904 to 0.00501905
Heightened Def Con from 0.00501954 to 0.00501955
Heightened Def Con from 0.0050196 to 0.00501961
Heightened Def Con from 0.00502985 to 0.00502986
Heightened Def Con from 0.00503189 to 0.00503189
Heightened Def Con from 0.00503239 to 0.00503239
Heightened Def Con from 0.00504019 to 0.00504019
Heightened Def Con from 0.00504074 to 0.00504074
Heightened Def Con from 0.00504181 to 0.00504181
Heightened Def Con from 0.00504494 to 0.00504494
Heightened Def Con from 0.00504544 to 0.00504544
Heightened Def Con from 0.0050455 to 0.0050455
Heightened Def Con from 0.00505614 to 0.00505615
Heightened Def Con from 0.00505722 to 0.00505722
Heightened Def Con from 0.0050581 to 0.0050581
Heightened Def Con from 0.00505817 to 0.00505817
Heightened Def Con from 0.0050586 to 0.0050586
Heightened Def Con from 0.00505867 to 0.00505867
Heightened Def Con from 0.00506793 to 0.00506793
Heightened Def Con from 0.00506848 to 0.00506848
Heightened Def Con from 0.00506957 to 0.00506957
Heightened Def Con from 0.00507066 to 0.00507066
Heightened Def Con from 0.00507161 to 0.00507161
Heightened Def Con from 0.00507161 to 0.00507161
Heightened Def Con from 0.00507211 to 0.00507211
Heightened Def Con from 0.00507217 to 0.00507217
Heightened Def Con from 0.00508425 to 0.00508426
Heightened Def Con from 0.0050852 to 0.0050852
Heightened Def Con from 0.0050852 to 0.0050852
Heightened Def Con from 0.0050857 to 0.0050857
Heightened Def Con from 0.00509637 to 0.00509637
Heightened Def Con from 0.00509746 to 0.00509747
Heightened Def Con from 0.00509938 to 0.00509938
Heightened Def Con from 0.00511188 to 0.00511189
Heightened Def Con from 0.00511283 to 0.00511283
Heightened Def Con from 0.0051131 to 0.0051131
Heightened Def Con from 0.00511333 to 0.00511333
Heightened Def Con from 0.00511339 to 0.00511339
Heightened Def Con from 0.00512316 to 0.00512317
Heightened Def Con from 0.00512678 to 0.00512678
Heightened Def Con from 0.00512684 to 0.00512684
Heightened Def Con from 0.00512734 to 0.00512735
Heightened Def Con from 0.0051274 to 0.00512741
Heightened Def Con from 0.00513729 to 0.00513729
Heightened Def Con from 0.00513946 to 0.00513947
Heightened Def Con from 0.00514041 to 0.00514041
Heightened Def Con from 0.00514041 to 0.00514041
Heightened Def Con from 0.00514091 to 0.00514092
Heightened Def Con from 0.00592087 to 0.00592088
Heightened Def Con from 0.00629133 to 0.00629133
Heightened Def Con from 0.00629228 to 0.00629229
Heightened Def Con from 0.00646653 to 0.00646653
Heightened Def Con from 0.0064666 to 0.0064666
Heightened Def Con from 0.00663698 to 0.00663698
Heightened Def Con from 0.00680846 to 0.00680846
Heightened Def Con from 0.00680995 to 0.00680995
Heightened Def Con from 0.00715357 to 0.00715357
Heightened Def Con from 0.00749588 to 0.00749588
Heightened Def Con from 0.00749595 to 0.00749595
Heightened Def Con from 0.00783785 to 0.00783785
Heightened Def Con from 0.00783927 to 0.00783927
Heightened Def Con from 0.00783934 to 0.00783935
Heightened Def Con from 0.00801092 to 0.00801093
Heightened Def Con from 0.008011 to 0.008011
Heightened Def Con from 0.00818271 to 0.00818272
Heightened Def Con from 0.00835396 to 0.00835397
Heightened Def Con from 0.00835439 to 0.00835439
Heightened Def Con from 0.00852531 to 0.00852531
Heightened Def Con from 0.00886684 to 0.00886684
Heightened Def Con from 0.00886826 to 0.00886827
Heightened Def Con from 0.00886833 to 0.00886834
Heightened Def Con from 0.00886884 to 0.00886884
Heightened Def Con from 0.00903989 to 0.00903989
Heightened Def Con from 0.00921143 to 0.00921143
Heightened Def Con from 0.00938312 to 0.00938312
Heightened Def Con from 0.00955305 to 0.00955305
Heightened Def Con from 0.00955447 to 0.00955447
Heightened Def Con from 0.00972605 to 0.00972605
Heightened Def Con from 0.00989768 to 0.00989768
Heightened Def Con from 0.0102394 to 0.0102394
Heightened Def Con from 0.0102409 to 0.0102409
Heightened Def Con from 0.010411 to 0.010411
Heightened Def Con from 0.0104124 to 0.0104124
Heightened Def Con from 0.0105845 to 0.0105845
Heightened Def Con from 0.0107541 to 0.0107541
Heightened Def Con from 0.0107556 to 0.0107556
Heightened Def Con from 0.0109259 to 0.0109259
Heightened Def Con from 0.0109273 to 0.0109273
Heightened Def Con from 0.0110968 to 0.0110968
Heightened Def Con from 0.0110989 to 0.0110989
Heightened Def Con from 0.0114408 to 0.0114408
Heightened Def Con from 0.0114423 to 0.0114423
Heightened Def Con from 0.0119572 to 0.0119572
Heightened Def Con from 0.0124718 to 0.0124718
Heightened Def Con from 0.0131565 to 0.0131565
Heightened Def Con from 0.0133293 to 0.0133294
Heightened Def Con from 0.0135006 to 0.0135006
Heightened Def Con from 0.0135006 to 0.0135006
Heightened Def Con from 0.0140155 to 0.0140156
Heightened Def Con from 0.0141871 to 0.0141871
Heightened Def Con from 0.0141876 to 0.0141876
Heightened Def Con from 0.0143583 to 0.0143583
Heightened Def Con from 0.0143584 to 0.0143584
Heightened Def Con from 0.0147013 to 0.0147013
Heightened Def Con from 0.0148713 to 0.0148713
Heightened Def Con from 0.0148728 to 0.0148728
Heightened Def Con from 0.0148733 to 0.0148733
Heightened Def Con from 0.0150043 to 0.0150043
Heightened Def Con from 0.0150049 to 0.0150049
Heightened Def Con from 0.0150064 to 0.0150064
Heightened Def Con from 0.0150064 to 0.0150064
Heightened Def Con from 0.0150143 to 0.0150143
Heightened Def Con from 0.0150181 to 0.0150181
Heightened Def Con from 0.015019 to 0.015019
Heightened Def Con from 0.0150293 to 0.0150293
Heightened Def Con from 0.0150324 to 0.0150324
Heightened Def Con from 0.0150324 to 0.0150325
Heightened Def Con from 0.0150413 to 0.0150413
Heightened Def Con from 0.0150429 to 0.0150429
Heightened Def Con from 0.0150449 to 0.0150449
Heightened Def Con from 0.0150455 to 0.0150455
Heightened Def Con from 0.0150567 to 0.0150567
Heightened Def Con from 0.0150582 to 0.0150582
Heightened Def Con from 0.0150582 to 0.0150582
Heightened Def Con from 0.0150587 to 0.0150587
Heightened Def Con from 0.0150588 to 0.0150588
Heightened Def Con from 0.0150691 to 0.0150691
Heightened Def Con from 0.0150707 to 0.0150707
Heightened Def Con from 0.0150717 to 0.0150717
Heightened Def Con from 0.0150722 to 0.0150722
Heightened Def Con from 0.0150805 to 0.0150805
Heightened Def Con from 0.0150822 to 0.0150822
Heightened Def Con from 0.0150833 to 0.0150833
Heightened Def Con from 0.0150852 to 0.0150852
Heightened Def Con from 0.0150853 to 0.0150853
Heightened Def Con from 0.0150858 to 0.0150858
Heightened Def Con from 0.0150949 to 0.0150949
Heightened Def Con from 0.015099 to 0.015099
Heightened Def Con from 0.0150994 to 0.0150994
Heightened Def Con from 0.0150996 to 0.0150996
Heightened Def Con from 0.0151093 to 0.0151093
Heightened Def Con from 0.0151135 to 0.0151135
Heightened Def Con from 0.0151222 to 0.0151222
Heightened Def Con from 0.0151255 to 0.0151255
Heightened Def Con from 0.015127 to 0.015127
Heightened Def Con from 0.0151275 to 0.0151275
Heightened Def Con from 0.0151275 to 0.0151275
Heightened Def Con from 0.0151385 to 0.0151385
Heightened Def Con from 0.0151406 to 0.0151406
Heightened Def Con from 0.0151411 to 0.0151411
Heightened Def Con from 0.0151411 to 0.0151411
Heightened Def Con from 0.0151531 to 0.0151531
Heightened Def Con from 0.0159265 to 0.0159265
Heightened Def Con from 0.0161166 to 0.0161166
Heightened Def Con from 0.0162939 to 0.0162939
Heightened Def Con from 0.0162945 to 0.0162945
Heightened Def Con from 0.016296 to 0.016296
Heightened Def Con from 0.0164706 to 0.0164706
Heightened Def Con from 0.0166426 to 0.0166427
Heightened Def Con from 0.0173277 to 0.0173277
Heightened Def Con from 0.0173291 to 0.0173291
Heightened Def Con from 0.0173292 to 0.0173292
Heightened Def Con from 0.0173297 to 0.0173297
Heightened Def Con from 0.0178439 to 0.0178439
Heightened Def Con from 0.0178444 to 0.0178444
Heightened Def Con from 0.018014 to 0.018014
Heightened Def Con from 0.0181855 to 0.0181855
Heightened Def Con from 0.0185284 to 0.0185284
Heightened Def Con from 0.0185298 to 0.0185298
Heightened Def Con from 0.0187 to 0.0187
Heightened Def Con from 0.018873 to 0.018873
Heightened Def Con from 0.018873 to 0.018873
Heightened Def Con from 0.0192164 to 0.0192164
Heightened Def Con from 0.0193862 to 0.0193862
Heightened Def Con from 0.0195576 to 0.0195576
Heightened Def Con from 0.019729 to 0.019729
Heightened Def Con from 0.020074 to 0.020074
Heightened Def Con from 0.0202442 to 0.0202442
Heightened Def Con from 0.0207586 to 0.0207586
Heightened Def Con from 0.0209313 to 0.0209313
Heightened Def Con from 0.0211031 to 0.0211031
Heightened Def Con from 0.0214459 to 0.0214459
Heightened Def Con from 0.021616 to 0.021616
Heightened Def Con from 0.0219609 to 0.0219609
Heightened Def Con from 0.0223047 to 0.0223047
Heightened Def Con from 0.0228195 to 0.0228195
Heightened Def Con from 0.0229894 to 0.0229894
Heightened Def Con from 0.0229909 to 0.0229909
Heightened Def Con from 0.0231625 to 0.0231625
Heightened Def Con from 0.0233317 to 0.0233317
Heightened Def Con from 0.0233343 to 0.0233343
Heightened Def Con from 0.0233344 to 0.0233344
Heightened Def Con from 0.0238472 to 0.0238472
Heightened Def Con from 0.0240194 to 0.0240194
Heightened Def Con from 0.0243626 to 0.0243626
Heightened Def Con from 0.0245341 to 0.0245341
Heightened Def Con from 0.0248756 to 0.0248756
Heightened Def Con from 0.0250055 to 0.0250055
Heightened Def Con from 0.0250165 to 0.0250165
Heightened Def Con from 0.0250191 to 0.0250191
Heightened Def Con from 0.0250196 to 0.0250196
Heightened Def Con from 0.0250197 to 0.0250197
Heightened Def Con from 0.0250278 to 0.0250278
Heightened Def Con from 0.0250294 to 0.0250294
Heightened Def Con from 0.02503 to 0.02503
Heightened Def Con from 0.0250305 to 0.0250305
Heightened Def Con from 0.025032 to 0.025032
Heightened Def Con from 0.0250323 to 0.0250323
Heightened Def Con from 0.0250325 to 0.0250325
Heightened Def Con from 0.0250326 to 0.0250326
Heightened Def Con from 0.0250425 to 0.0250425
Heightened Def Con from 0.0250431 to 0.0250431
Heightened Def Con from 0.0250436 to 0.0250436
Heightened Def Con from 0.0250451 to 0.0250451
Heightened Def Con from 0.0250456 to 0.0250456
Heightened Def Con from 0.0250547 to 0.0250547
Heightened Def Con from 0.0250564 to 0.0250564
Heightened Def Con from 0.0250589 to 0.0250589
Heightened Def Con from 0.0250693 to 0.0250693
Heightened Def Con from 0.0250718 to 0.0250718
Heightened Def Con from 0.0250721 to 0.0250721
Heightened Def Con from 0.0250723 to 0.0250723
Heightened Def Con from 0.0250813 to 0.0250813
Heightened Def Con from 0.0250829 to 0.0250829
Heightened Def Con from 0.0250834 to 0.0250834
Heightened Def Con from 0.0250855 to 0.0250855
Heightened Def Con from 0.025086 to 0.025086
Heightened Def Con from 0.025086 to 0.025086
Heightened Def Con from 0.025095 to 0.025095
Heightened Def Con from 0.0250961 to 0.0250961
Heightened Def Con from 0.0250992 to 0.0250992
Heightened Def Con from 0.0250997 to 0.0250997
Heightened Def Con from 0.0251089 to 0.0251089
Heightened Def Con from 0.0251116 to 0.0251116
Heightened Def Con from 0.0251122 to 0.0251122
Heightened Def Con from 0.0251131 to 0.0251131
Heightened Def Con from 0.0251136 to 0.0251136
Heightened Def Con from 0.0251138 to 0.0251138
Heightened Def Con from 0.0251224 to 0.0251224
Heightened Def Con from 0.0251229 to 0.0251229
Heightened Def Con from 0.0251235 to 0.0251235
Heightened Def Con from 0.0251246 to 0.0251246
Heightened Def Con from 0.0251251 to 0.0251251
Heightened Def Con from 0.0251262 to 0.0251262
Heightened Def Con from 0.0251271 to 0.0251271
Heightened Def Con from 0.0251276 to 0.0251276
Heightened Def Con from 0.0251277 to 0.0251277
Heightened Def Con from 0.0251365 to 0.0251365
Heightened Def Con from 0.0251387 to 0.0251387
Heightened Def Con from 0.0251412 to 0.0251412
Heightened Def Con from 0.0251496 to 0.0251496
Heightened Def Con from 0.0251532 to 0.0251533
Heightened Def Con from 0.0261207 to 0.0261207
Heightened Def Con from 0.0263003 to 0.0263003
Heightened Def Con from 0.0268179 to 0.0268179
Heightened Def Con from 0.0278474 to 0.0278474
Heightened Def Con from 0.0281892 to 0.0281892
Heightened Def Con from 0.0281907 to 0.0281907
Heightened Def Con from 0.0281907 to 0.0281907
Heightened Def Con from 0.0281912 to 0.0281912
Heightened Def Con from 0.0281914 to 0.0281914
Heightened Def Con from 0.0285324 to 0.0285324
Heightened Def Con from 0.0285338 to 0.0285338
Heightened Def Con from 0.0288767 to 0.0288767
Heightened Def Con from 0.0288772 to 0.0288772
Heightened Def Con from 0.0288774 to 0.0288774
Heightened Def Con from 0.0295626 to 0.0295626
Heightened Def Con from 0.0300771 to 0.0300771
Heightened Def Con from 0.0300776 to 0.0300776
Heightened Def Con from 0.0300777 to 0.0300777
Heightened Def Con from 0.0302471 to 0.0302471
Heightened Def Con from 0.0304201 to 0.0304201
Heightened Def Con from 0.031793 to 0.031793
Heightened Def Con from 0.0319635 to 0.0319635
Heightened Def Con from 0.0321339 to 0.0321339
Heightened Def Con from 0.0321349 to 0.0321349
Heightened Def Con from 0.0321359 to 0.0321359
Heightened Def Con from 0.0328219 to 0.0328219
Heightened Def Con from 0.032822 to 0.032822
Heightened Def Con from 0.0328225 to 0.0328225
Heightened Def Con from 0.0329934 to 0.0329934
Heightened Def Con from 0.0329937 to 0.0329937
Heightened Def Con from 0.0329937 to 0.0329937
Heightened Def Con from 0.0335077 to 0.0335077
Heightened Def Con from 0.0338495 to 0.0338495
Heightened Def Con from 0.033851 to 0.033851
Heightened Def Con from 0.033851 to 0.033851
Heightened Def Con from 0.0340217 to 0.0340217
Heightened Def Con from 0.0343633 to 0.0343633
Heightened Def Con from 0.034709 to 0.034709
Heightened Def Con from 0.0348804 to 0.0348804
Heightened Def Con from 0.0350022 to 0.0350022
Heightened Def Con from 0.0350038 to 0.0350038
Heightened Def Con from 0.0350049 to 0.0350049
Heightened Def Con from 0.0350055 to 0.0350055
Heightened Def Con from 0.0350064 to 0.0350064
Heightened Def Con from 0.0350064 to 0.0350064
Heightened Def Con from 0.0350149 to 0.0350149
Heightened Def Con from 0.0350171 to 0.0350171
Heightened Def Con from 0.0350191 to 0.0350191
Heightened Def Con from 0.0350278 to 0.0350278
Heightened Def Con from 0.0350294 to 0.0350294
Heightened Def Con from 0.03503 to 0.03503
Heightened Def Con from 0.0350325 to 0.0350325
Heightened Def Con from 0.0350326 to 0.0350326
Heightened Def Con from 0.035042 to 0.035042
Heightened Def Con from 0.0350426 to 0.0350426
Heightened Def Con from 0.0350431 to 0.0350431
Heightened Def Con from 0.0350436 to 0.0350437
Heightened Def Con from 0.0350456 to 0.0350456
Heightened Def Con from 0.0350457 to 0.0350457
Heightened Def Con from 0.0350537 to 0.0350537
Heightened Def Con from 0.0350559 to 0.0350559
Heightened Def Con from 0.0350575 to 0.0350575
Heightened Def Con from 0.0350584 to 0.0350584
Heightened Def Con from 0.0350584 to 0.0350584
Heightened Def Con from 0.0350589 to 0.0350589
Heightened Def Con from 0.035059 to 0.035059
Heightened Def Con from 0.0350672 to 0.0350672
Heightened Def Con from 0.0350677 to 0.0350677
Heightened Def Con from 0.0350688 to 0.0350688
Heightened Def Con from 0.0350693 to 0.0350693
Heightened Def Con from 0.0350704 to 0.0350704
Heightened Def Con from 0.035071 to 0.035071
Heightened Def Con from 0.0350718 to 0.0350718
Heightened Def Con from 0.0350723 to 0.0350723
Heightened Def Con from 0.0350808 to 0.0350808
Heightened Def Con from 0.0350835 to 0.0350835
Heightened Def Con from 0.0350855 to 0.0350855
Heightened Def Con from 0.0350856 to 0.0350856
Heightened Def Con from 0.0350968 to 0.0350968
Heightened Def Con from 0.0350993 to 0.0350993
Heightened Def Con from 0.0350993 to 0.0350993
Heightened Def Con from 0.0350998 to 0.0350998
Heightened Def Con from 0.0351091 to 0.0351091
Heightened Def Con from 0.0351123 to 0.0351123
Heightened Def Con from 0.0351133 to 0.0351133
Heightened Def Con from 0.0351138 to 0.0351138
Heightened Def Con from 0.0351138 to 0.0351138
Heightened Def Con from 0.0351225 to 0.0351225
Heightened Def Con from 0.0351267 to 0.0351267
Heightened Def Con from 0.0351371 to 0.0351371
Heightened Def Con from 0.0351382 to 0.0351382
Heightened Def Con from 0.0351388 to 0.0351388
Heightened Def Con from 0.0351396 to 0.0351396
Heightened Def Con from 0.0351397 to 0.0351397
Heightened Def Con from 0.0351491 to 0.0351491
Heightened Def Con from 0.0351527 to 0.0351527
Heightened Def Con from 0.0359346 to 0.0359346
Heightened Def Con from 0.0361222 to 0.0361222
Heightened Def Con from 0.0361233 to 0.0361233
Heightened Def Con from 0.0361247 to 0.0361247
Heightened Def Con from 0.0363022 to 0.0363022
Heightened Def Con from 0.0364769 to 0.0364769
Heightened Def Con from 0.0366472 to 0.0366472
Heightened Def Con from 0.0368198 to 0.0368198
Heightened Def Con from 0.0371651 to 0.0371651
Heightened Def Con from 0.0373354 to 0.0373354
Heightened Def Con from 0.0373359 to 0.0373359
Heightened Def Con from 0.0375083 to 0.0375083
Heightened Def Con from 0.0376797 to 0.0376797
Heightened Def Con from 0.0378514 to 0.0378514
Heightened Def Con from 0.0380212 to 0.0380212
Heightened Def Con from 0.0380227 to 0.0380227
Heightened Def Con from 0.0381941 to 0.0381941
Heightened Def Con from 0.0383651 to 0.0383651
Heightened Def Con from 0.0385352 to 0.0385352
Heightened Def Con from 0.0385357 to 0.0385357
Heightened Def Con from 0.0385366 to 0.0385366
Heightened Def Con from 0.0385366 to 0.0385367
Heightened Def Con from 0.0392215 to 0.0392215
Heightened Def Con from 0.0395651 to 0.0395651
Heightened Def Con from 0.0399095 to 0.0399095
Heightened Def Con from 0.0400795 to 0.0400795
Heightened Def Con from 0.0402503 to 0.0402503
Heightened Def Con from 0.0402523 to 0.0402523
Heightened Def Con from 0.0407672 to 0.0407672
Heightened Def Con from 0.0409385 to 0.0409385
Heightened Def Con from 0.0411102 to 0.0411103
Heightened Def Con from 0.0412801 to 0.0412801
Heightened Def Con from 0.0412816 to 0.0412816
Heightened Def Con from 0.0412821 to 0.0412821
Heightened Def Con from 0.041623 to 0.041623
Heightened Def Con from 0.0417962 to 0.0417962
Heightened Def Con from 0.0424813 to 0.0424813
Heightened Def Con from 0.0438538 to 0.0438538
Heightened Def Con from 0.044027 to 0.044027
Heightened Def Con from 0.0443697 to 0.0443697
Heightened Def Con from 0.0445406 to 0.0445406
Heightened Def Con from 0.0450028 to 0.0450028
Heightened Def Con from 0.0450039 to 0.0450039
Heightened Def Con from 0.0450055 to 0.0450055
Heightened Def Con from 0.0450064 to 0.0450064
Heightened Def Con from 0.0450064 to 0.0450064
Heightened Def Con from 0.045015 to 0.045015
Heightened Def Con from 0.0450155 to 0.0450155
Heightened Def Con from 0.0450197 to 0.0450197
Heightened Def Con from 0.0450197 to 0.0450197
Heightened Def Con from 0.0450284 to 0.0450284
Heightened Def Con from 0.045032 to 0.045032
Heightened Def Con from 0.0450321 to 0.0450321
Heightened Def Con from 0.0450326 to 0.0450326
Heightened Def Con from 0.0450327 to 0.0450327
Heightened Def Con from 0.0450405 to 0.0450405
Heightened Def Con from 0.0450421 to 0.0450421
Heightened Def Con from 0.0450452 to 0.0450452
Heightened Def Con from 0.0450457 to 0.0450457
Heightened Def Con from 0.0450458 to 0.0450458
Heightened Def Con from 0.0450538 to 0.0450538
Heightened Def Con from 0.0450543 to 0.0450543
Heightened Def Con from 0.0450549 to 0.0450549
Heightened Def Con from 0.0450554 to 0.0450554
Heightened Def Con from 0.0450576 to 0.0450576
Heightened Def Con from 0.0450585 to 0.0450585
Heightened Def Con from 0.0450673 to 0.0450673
Heightened Def Con from 0.04507 to 0.04507
Heightened Def Con from 0.0450705 to 0.0450705
Heightened Def Con from 0.045072 to 0.045072
Heightened Def Con from 0.0450842 to 0.0450842
Heightened Def Con from 0.0450857 to 0.0450857
Heightened Def Con from 0.0450862 to 0.0450862
Heightened Def Con from 0.0450862 to 0.0450862
Heightened Def Con from 0.0450953 to 0.0450953
Heightened Def Con from 0.0450969 to 0.0450969
Heightened Def Con from 0.045098 to 0.045098
Heightened Def Con from 0.0450997 to 0.0450998
Heightened Def Con from 0.0451086 to 0.0451086
Heightened Def Con from 0.0451092 to 0.0451092
Heightened Def Con from 0.0451103 to 0.0451103
Heightened Def Con from 0.0451108 to 0.0451108
Heightened Def Con from 0.0451119 to 0.0451119
Heightened Def Con from 0.0451124 to 0.0451125
Heightened Def Con from 0.0451134 to 0.0451134
Heightened Def Con from 0.0451137 to 0.0451137
Heightened Def Con from 0.0451139 to 0.0451139
Heightened Def Con from 0.045114 to 0.045114
Heightened Def Con from 0.0451265 to 0.0451265
Heightened Def Con from 0.0451274 to 0.0451274
Heightened Def Con from 0.0451274 to 0.0451274
Heightened Def Con from 0.0451279 to 0.0451279
Heightened Def Con from 0.045128 to 0.045128
Heightened Def Con from 0.0451396 to 0.0451396
Heightened Def Con from 0.0451401 to 0.0451401
Heightened Def Con from 0.0451411 to 0.0451411
Heightened Def Con from 0.0451411 to 0.0451411
Heightened Def Con from 0.0451416 to 0.0451416
Heightened Def Con from 0.0451416 to 0.0451416
Heightened Def Con from 0.0451535 to 0.0451535
Heightened Def Con from 0.0451536 to 0.0451536
Heightened Def Con from 0.0459401 to 0.0459402
Heightened Def Con from 0.0463063 to 0.0463063
Heightened Def Con from 0.0463084 to 0.0463084
Heightened Def Con from 0.0463084 to 0.0463084
Heightened Def Con from 0.0466533 to 0.0466533
Heightened Def Con from 0.0466548 to 0.0466548
Heightened Def Con from 0.0468249 to 0.0468249
Heightened Def Con from 0.0468264 to 0.0468264
Heightened Def Con from 0.0481976 to 0.0481976
Heightened Def Con from 0.0483686 to 0.0483687
Heightened Def Con from 0.0483707 to 0.0483707
Heightened Def Con from 0.0485422 to 0.0485422
Heightened Def Con from 0.0487128 to 0.0487128
Heightened Def Con from 0.0490562 to 0.0490562
Heightened Def Con from 0.049229 to 0.049229
Heightened Def Con from 0.0494004 to 0.0494004
Heightened Def Con from 0.0494008 to 0.0494008
Heightened Def Con from 0.0495703 to 0.0495703
Heightened Def Con from 0.0497433 to 0.0497433
Heightened Def Con from 0.049915 to 0.049915
Heightened Def Con from 0.0500866 to 0.0500866
Heightened Def Con from 0.0502561 to 0.0502561
Heightened Def Con from 0.0509453 to 0.0509453
Heightened Def Con from 0.051115 to 0.051115
Heightened Def Con from 0.0511164 to 0.0511164
Heightened Def Con from 0.0514597 to 0.0514597
Heightened Def Con from 0.0514602 to 0.0514602
Heightened Def Con from 0.0514603 to 0.0514603
Heightened Def Con from 0.0518008 to 0.0518008
Heightened Def Con from 0.0521465 to 0.0521465
Heightened Def Con from 0.052147 to 0.052147
Heightened Def Con from 0.0524882 to 0.0524882
Heightened Def Con from 0.0530045 to 0.0530045
Heightened Def Con from 0.0531746 to 0.0531746
Heightened Def Con from 0.0531761 to 0.0531761
Heightened Def Con from 0.0538628 to 0.0538628
Heightened Def Con from 0.0542054 to 0.0542054
Heightened Def Con from 0.0542059 to 0.0542059
Heightened Def Con from 0.0543768 to 0.0543768
Heightened Def Con from 0.0545487 to 0.0545487
Heightened Def Con from 0.0550023 to 0.0550023
Heightened Def Con from 0.0550028 to 0.0550028
Heightened Def Con from 0.0550034 to 0.0550034
Heightened Def Con from 0.0550065 to 0.0550065
Heightened Def Con from 0.0550065 to 0.0550065
Heightened Def Con from 0.0550172 to 0.0550172
Heightened Def Con from 0.0550172 to 0.0550172
Heightened Def Con from 0.0550172 to 0.0550172
Heightened Def Con from 0.0550178 to 0.0550178
Heightened Def Con from 0.0550192 to 0.0550192
Heightened Def Con from 0.0550193 to 0.0550193
Heightened Def Con from 0.0550193 to 0.0550193
Heightened Def Con from 0.0550198 to 0.0550198
Heightened Def Con from 0.0550198 to 0.0550198
Heightened Def Con from 0.0550291 to 0.0550291
Heightened Def Con from 0.0550307 to 0.0550307
Heightened Def Con from 0.0550322 to 0.0550322
Heightened Def Con from 0.0550322 to 0.0550322
Heightened Def Con from 0.0550327 to 0.0550327
Heightened Def Con from 0.0550328 to 0.0550328
Heightened Def Con from 0.0550406 to 0.0550406
Heightened Def Con from 0.0550428 to 0.0550428
Heightened Def Con from 0.0550434 to 0.0550434
Heightened Def Con from 0.0550453 to 0.0550453
Heightened Def Con from 0.0550454 to 0.0550454
Heightened Def Con from 0.0550545 to 0.0550545
Heightened Def Con from 0.0550587 to 0.0550587
Heightened Def Con from 0.055059 to 0.055059
Heightened Def Con from 0.0550592 to 0.0550592
Heightened Def Con from 0.0550593 to 0.0550593
Heightened Def Con from 0.0550675 to 0.0550675
Heightened Def Con from 0.0550675 to 0.0550675
Heightened Def Con from 0.055068 to 0.055068
Heightened Def Con from 0.0550691 to 0.0550691
Heightened Def Con from 0.0550697 to 0.0550697
Heightened Def Con from 0.0550708 to 0.0550708
Heightened Def Con from 0.0550713 to 0.0550713
Heightened Def Con from 0.0550722 to 0.0550722
Heightened Def Con from 0.0550722 to 0.0550722
Heightened Def Con from 0.0550727 to 0.0550727
Heightened Def Con from 0.0550728 to 0.0550728
Heightened Def Con from 0.0550859 +to 0.0550859
Heightened Def Con from 0.0550864 to 0.0550864
Heightened Def Con from 0.0550961 to 0.0550961
Heightened Def Con from 0.0550982 to 0.0550982
Heightened Def Con from 0.0550997 to 0.0550997
Heightened Def Con from 0.0550997 to 0.0550997
Heightened Def Con from 0.0551004 to 0.0551004
Heightened Def Con from 0.0551105 to 0.0551105
Heightened Def Con from 0.0551111 to 0.0551111
Heightened Def Con from 0.0551127 to 0.0551127
Heightened Def Con from 0.0551251 to 0.0551252
Heightened Def Con from 0.0551275 to 0.0551275
Heightened Def Con from 0.055137 to 0.055137
Heightened Def Con from 0.0551381 to 0.0551381
Heightened Def Con from 0.0551387 to 0.0551387
Heightened Def Con from 0.0551405 to 0.0551405
Heightened Def Con from 0.0551495 to 0.0551495
Heightened Def Con from 0.0559166 to 0.0559166
Heightened Def Con from 0.0561041 to 0.0561041
Heightened Def Con from 0.0562852 to 0.0562852
Heightened Def Con from 0.0562863 to 0.0562863
Heightened Def Con from 0.0562872 to 0.0562872
Heightened Def Con from 0.0566339 to 0.0566339
Heightened Def Con from 0.0569749 to 0.0569749
Heightened Def Con from 0.0573184 to 0.0573184
Heightened Def Con from 0.0573199 to 0.0573199
Heightened Def Con from 0.058176 to 0.058176
Heightened Def Con from 0.0581765 to 0.0581765
Heightened Def Con from 0.0583479 to 0.0583479
Heightened Def Con from 0.0583494 to 0.0583494
Heightened Def Con from 0.0583494 to 0.0583494
Heightened Def Con from 0.0595488 to 0.0595488
Heightened Def Con from 0.0597217 to 0.0597217
Heightened Def Con from 0.0598933 to 0.0598933
Heightened Def Con from 0.0602348 to 0.0602348
Heightened Def Con from 0.0604086 to 0.0604086
Heightened Def Con from 0.0604087 to 0.0604087
Heightened Def Con from 0.0610946 to 0.0610946
Heightened Def Con from 0.0612648 to 0.0612648
Heightened Def Con from 0.0614385 to 0.0614385
Heightened Def Con from 0.0616085 to 0.0616085
Heightened Def Con from 0.0617819 to 0.0617819
Heightened Def Con from 0.0628112 to 0.0628112
Heightened Def Con from 0.0631529 to 0.0631529
Heightened Def Con from 0.0633233 to 0.0633233
Heightened Def Con from 0.0636687 to 0.0636687
Heightened Def Con from 0.0640113 to 0.0640113
Heightened Def Con from 0.0645244 to 0.0645244
Heightened Def Con from 0.0645259 to 0.0645259
Heightened Def Con from 0.0652119 to 0.0652119
Heightened Def Con from 0.0670971 to 0.0670971
Heightened Def Con from 0.06727 to 0.06727
Heightened Def Con from 0.0677828 to 0.0677828
Heightened Def Con from 0.0677848 to 0.0677848
Heightened Def Con from 0.0688117 to 0.0688117
Heightened Def Con from 0.0688122 to 0.0688122
Heightened Def Con from 0.0688137 to 0.0688137
Heightened Def Con from 0.0689851 to 0.0689851
Heightened Def Con from 0.0689856 to 0.0689856
Heightened Def Con from 0.0693281 to 0.0693281
Heightened Def Con from 0.0694978 to 0.0694978
Heightened Def Con from 0.0696703 to 0.0696703
Heightened Def Con from 0.0698429 to 0.0698429
Heightened Def Con from 0.0705277 to 0.0705277
Heightened Def Con from 0.0707006 to 0.0707007
Heightened Def Con from 0.0708724 to 0.0708724
Heightened Def Con from 0.0713855 to 0.0713855
Heightened Def Con from 0.0719008 to 0.0719008
Heightened Def Con from 0.0720725 to 0.0720725
Heightened Def Con from 0.0724167 to 0.0724167
Heightened Def Con from 0.0725864 to 0.0725864
Heightened Def Con from 0.0727605 to 0.0727605
Heightened Def Con from 0.0729299 to 0.0729299
Heightened Def Con from 0.0731029 to 0.0731029
Heightened Def Con from 0.0732724 to 0.0732724
Heightened Def Con from 0.073275 to 0.073275
Heightened Def Con from 0.0736175 to 0.0736175
Heightened Def Con from 0.0741306 to 0.0741306
Heightened Def Con from 0.0743006 to 0.0743006
Heightened Def Con from 0.0744737 to 0.0744737
Heightened Def Con from 0.0749892 to 0.0749892
Heightened Def Con from 0.0753294 to 0.0753294
Heightened Def Con from 0.075504 to 0.075504
Heightened Def Con from 0.0755041 to 0.0755041
Heightened Def Con from 0.0756743 to 0.0756743
Heightened Def Con from 0.0756758 to 0.0756758
Heightened Def Con from 0.0761907 to 0.0761907
Heightened Def Con from 0.0763623 to 0.0763623
Heightened Def Con from 0.0767053 to 0.0767053
Heightened Def Con from 0.0768765 to 0.0768765
Heightened Def Con from 0.0772195 to 0.0772195
Heightened Def Con from 0.0773895 to 0.0773895
Heightened Def Con from 0.0775627 to 0.0775627
Heightened Def Con from 0.0775629 to 0.0775629
Heightened Def Con from 0.0777337 to 0.0777337
Heightened Def Con from 0.077905 to 0.077905
Heightened Def Con from 0.0780767 to 0.0780767
Heightened Def Con from 0.0785912 to 0.0785912
Heightened Def Con from 0.0787602 to 0.0787602
Heightened Def Con from 0.0791058 to 0.0791058
Heightened Def Con from 0.0797917 to 0.0797917
Heightened Def Con from 0.0799635 to 0.0799635
Heightened Def Con from 0.0801353 to 0.0801353
Heightened Def Con from 0.0803074 to 0.0803074
Heightened Def Con from 0.0804767 to 0.0804767
Heightened Def Con from 0.0808207 to 0.0808207
Heightened Def Con from 0.0809939 to 0.0809939
Heightened Def Con from 0.082023 to 0.082023
Heightened Def Con from 0.0821946 to 0.0821946
Heightened Def Con from 0.0830504 to 0.0830504
Heightened Def Con from 0.083738 to 0.083738
Heightened Def Con from 0.0840813 to 0.0840813
Heightened Def Con from 0.0842528 to 0.0842528
Heightened Def Con from 0.0845949 to 0.0845949
Heightened Def Con from 0.0849393 to 0.0849393
Heightened Def Con from 0.0849398 to 0.0849398
Heightened Def Con from 0.0857961 to 0.0857961
Heightened Def Con from 0.0859692 to 0.0859692
Heightened Def Con from 0.0861389 to 0.0861389
Heightened Def Con from 0.0864839 to 0.0864839
Heightened Def Con from 0.0866557 to 0.0866557
Heightened Def Con from 0.0868245 to 0.0868245
Heightened Def Con from 0.08717 to 0.08717
Heightened Def Con from 0.0876849 to 0.0876849
Heightened Def Con from 0.0878558 to 0.0878558
Heightened Def Con from 0.0880271 to 0.0880271
Heightened Def Con from 0.0883702 to 0.0883702
Heightened Def Con from 0.0883703 to 0.0883703
Heightened Def Con from 0.0885398 to 0.0885398
Heightened Def Con from 0.0887133 to 0.0887133
Heightened Def Con from 0.0888834 to 0.0888834
Heightened Def Con from 0.0893995 to 0.0893995
Heightened Def Con from 0.0895686 to 0.0895686
Heightened Def Con from 0.0897405 to 0.0897405
Heightened Def Con from 0.0900854 to 0.0900854
Heightened Def Con from 0.0902565 to 0.0902565
Heightened Def Con from 0.0904282 to 0.0904282
Heightened Def Con from 0.0907697 to 0.0907697
Heightened Def Con from 0.0911139 to 0.0911139
Heightened Def Con from 0.092141 to 0.092141
Heightened Def Con from 0.0924862 to 0.0924862
Heightened Def Con from 0.0930011 to 0.0930011
Heightened Def Con from 0.0931726 to 0.0931726
Heightened Def Con from 0.093514 to 0.093514
Heightened Def Con from 0.0935154 to 0.0935154
Heightened Def Con from 0.0938584 to 0.0938584
Heightened Def Con from 0.0943732 to 0.0943732
Heightened Def Con from 0.0947137 to 0.0947137
Heightened Def Con from 0.0948856 to 0.0948856
Heightened Def Con from 0.0948882 to 0.0948882
Heightened Def Con from 0.0950577 to 0.0950577
Heightened Def Con from 0.0952278 to 0.0952278
Heightened Def Con from 0.0952303 to 0.0952304
Heightened Def Con from 0.0952304 to 0.0952304
Heightened Def Con from 0.0954019 to 0.0954019
Heightened Def Con from 0.0962582 to 0.0962582
Heightened Def Con from 0.0962591 to 0.0962591
Heightened Def Con from 0.0964305 to 0.0964305
Heightened Def Con from 0.0967735 to 0.0967735
Heightened Def Con from 0.0967736 to 0.0967736
Heightened Def Con from 0.097115 to 0.097115
Heightened Def Con from 0.0974599 to 0.0974599
Heightened Def Con from 0.0976319 to 0.0976319
Heightened Def Con from 0.0978002 to 0.0978002
Heightened Def Con from 0.0978033 to 0.0978033
Heightened Def Con from 0.0981462 to 0.0981462
Heightened Def Con from 0.0983174 to 0.0983174
Heightened Def Con from 0.0983175 to 0.0983175
Heightened Def Con from 0.0984871 to 0.0984871
Heightened Def Con from 0.098489 to 0.0984891
Heightened Def Con from 0.098658 to 0.098658
Heightened Def Con from 0.0986606 to 0.0986606
Heightened Def Con from 0.0990022 to 0.0990022
Heightened Def Con from 0.0990036 to 0.0990036
Heightened Def Con from 0.0991748 to 0.0991748
Heightened Def Con from 0.0993462 to 0.0993462
Heightened Def Con from 0.0993467 to 0.0993467
Heightened Def Con from 0.0995176 to 0.0995176
Heightened Def Con from 0.0998608 to 0.0998608

Date: Mon Feb 06 10:53:14 2017
Total elapsed time: 230.673 seconds.

tnom = 27
temp = 27
method = modified trap
totiter = 14937970
traniter = 14937946
tranpoints = 4739525
accept = 3410357
rejected = 1332351
matrix size = 58
fillins = 20
solver = Normal
Thread vector: 16.1/8.3[2] 4.6/4.0[2] 2.6/1.4[2] 0.2/1.2[1]  2592/500
Matrix Compiler1: 3.96 KB object code size  0.9/1.2/[0.3]
Matrix Compiler2: 4.54 KB object code size  0.4/0.6/[0.4]


