Circuit: * C:\Users\Alexey Revinski\Documents\1_CLASS\BME 390-2\Repo\BME390\LTSpice\PulseGenerator1\PulseGen1.asc

Instance "m:m2:1": Width narrower than recommended for a level 3 MOSFET.
Instance "m:m3:1": Width narrower than recommended for a level 3 MOSFET.
Direct Newton iteration for .op point succeeded.
Heightened Def Con from 0.000270329 to 0.00027033
Heightened Def Con from 0.00036565 ++++++++++++++++++++++++++to 0.00036565
Heightened Def Con from 0.00036565 ++++++++++++++++++++++++++to 0.00036565
Heightened Def Con from 0.00036565 ++++++++++++++++++++++++++to 0.00036565
Heightened Def Con from 0.00036565 ++++++++++++++++++++++++++to 0.00036565
Heightened Def Con from 0.00036565 ++++++++++++++++++++++++++to 0.00036565
Heightened Def Con from 0.00036565 ++++++++++++++++++++++++++to 0.00036565
Heightened Def Con from 0.00036565 ++++++++++++++++++++++++++to 0.00036565
Heightened Def Con from 0.00036565 ++++++++++++++++++++++++++to 0.00036565
Heightened Def Con from 0.000366418 +++++++++++++++++++++++++++to 0.000366418
Heightened Def Con from 0.000366418 ++++++++++++++++++++++++++to 0.000366418
Heightened Def Con from 0.000366418 ++++++++++++++++++++++++++to 0.000366418
Heightened Def Con from 0.000366418 ++++++++++++++++++++++++++to 0.000366418
Heightened Def Con from 0.000366418 ++++++++++++++++++++++++++to 0.000366418
Heightened Def Con from 0.000366418 ++++++++++++++++++++++++++to 0.000366418
Heightened Def Con from 0.000366418 ++++++++++++++++++++++++++to 0.000366418
Heightened Def Con from 0.000366418 +++++++++++++++++++++++++++to 0.000366418
Heightened Def Con from 0.000366418 ++++++++++++++++++++++++++to 0.000366418
Heightened Def Con from 0.000366418 ++++++++++++++++++++++++++to 0.000366418
Heightened Def Con from 0.000366418 ++++++++++++++++++++++++++to 0.000366418
Heightened Def Con from 0.000366418 ++++++++++++++++++++++++++to 0.000366418
Heightened Def Con from 0.000366418 ++++++++++++++++++++++++++to 0.000366418
Heightened Def Con from 0.000366418 ++++++++++++++++++++++++++to 0.000366418
Heightened Def Con from 0.000366418 ++++++++++++++++++++++++++to 0.000366418
Heightened Def Con from 0.000366418 ++++++++++++++++++++++++++to 0.000366418
Heightened Def Con from 0.000366418 ++++++++++++++++++++++++++to 0.000366418
Heightened Def Con from 0.000366418 ++++++++++++++++++++++++++to 0.000366418
Heightened Def Con from 0.000366418 ++++++++++++++++++++++++++to 0.000366418
Heightened Def Con from 0.000366418 ++++++++++++++++++++++++++to 0.000366418
Heightened Def Con from 0.000366418 ++++++++++++++++++++++++++to 0.000366418
Heightened Def Con from 0.000366418 ++++++++++++++++++++++++++to 0.000366418
Heightened Def Con from 0.000366418 ++++++++++++++++++++++++++to 0.000366418
Heightened Def Con from 0.000366418 ++++++++++++++++++++++++++to 0.000366418
Heightened Def Con from 0.000366418 ++++++++++++++++++++++++++to 0.000366418
Heightened Def Con from 0.000366418 ++++++++++++++++++++++++++to 0.000366418
Heightened Def Con from 0.000366418 ++++++++++++++++++++++++++to 0.000366418
Heightened Def Con from 0.000366418 ++++++++++++++++++++++++++to 0.000366418
Heightened Def Con from 0.000366418 ++++++++++++++++++++++++++to 0.000366418
Heightened Def Con from 0.000366418 ++++++++++++++++++++++++++to 0.000366418
Heightened Def Con from 0.000366418 ++++++++++++++++++++++++++to 0.000366418
Heightened Def Con from 0.000366418 ++++++++++++++++++++++++++to 0.000366418
Heightened Def Con from 0.000366418 +++++++++++++++++++++++++++to 0.000366418
Heightened Def Con from 0.000366418 ++++++++++++++++++++++++++to 0.000366418
Heightened Def Con from 0.000366418 ++++++++++++++++++++++++++to 0.000366418
Heightened Def Con from 0.000366418 +++++++++++++++++++++++++++to 0.000366418
Heightened Def Con from 0.000366418 ++++++++++++++++++++++++++to 0.000366418
Heightened Def Con from 0.000366418 ++++++++++++++++++++++++++to 0.000366418
Heightened Def Con from 0.000366418 ++++++++++++++++++++++++++to 0.000366418
Heightened Def Con from 0.000374159 to 0.00037416
Heightened Def Con from 0.000374908 to 0.00037491
Heightened Def Con from 0.000375656 to 0.000375657
Heightened Def Con from 0.000376402 to 0.000376403
Heightened Def Con from 0.000377147 to 0.00037715
Heightened Def Con from 0.000377889 to 0.000377892
Heightened Def Con from 0.000380672 to 0.000380672
Heightened Def Con from 0.000390122 to 0.000390131
Heightened Def Con from 0.000402144 to 0.000402153
Heightened Def Con from 0.000403534 to 0.000403536
Heightened Def Con from 0.000419725 to 0.000419726
Heightened Def Con from 0.000730167 to 0.000730176
Heightened Def Con from 0.0007904 to 0.000790409
Heightened Def Con from 0.000818122 to 0.000818131
Heightened Def Con from 0.000828531 to 0.000828541
Heightened Def Con from 0.000843416 to 0.000843426
Heightened Def Con from 0.000843913 to 0.000843923
Heightened Def Con from 0.000849386 to 0.000849386
Heightened Def Con from 0.000850881 to 0.000850891
Heightened Def Con from 0.000875286 to 0.000875296
Heightened Def Con from 0.000878777 to 0.000878778
Heightened Def Con from 0.000880771 to 0.000880781
Heightened Def Con from 0.000888756 to 0.000888766
Heightened Def Con from 0.000889256 to 0.000889257
Heightened Def Con from 0.00089275 to 0.00089276
Heightened Def Con from 0.000903743 to 0.000903753
Heightened Def Con from 0.000907734 to 0.000907744
Heightened Def Con from 0.000915728 to 0.000915738
Heightened Def Con from 0.000923241 to 0.000923251
Heightened Def Con from 0.000949805 to 0.000949815
Heightened Def Con from 0.000955823 to 0.000955833
Heightened Def Con from 0.000961841 to 0.000961851
Heightened Def Con from 0.000963849 to 0.000963859
Heightened Def Con from 0.000974923 to 0.000974933
Heightened Def Con from 0.000977959 to 0.000977969
Heightened Def Con from 0.000979473 to 0.000979483
Heightened Def Con from 0.000993163 to 0.000993173
Heightened Def Con from 0.00100027 to 0.00100028
Heightened Def Con from 0.00100078 to 0.00100079
Heightened Def Con from 0.00101815 to 0.00101816
Heightened Def Con from 0.00102122 to 0.00102122
Heightened Def Con from 0.00102174 to 0.00102174
Heightened Def Con from 0.0010439 to 0.00104391
Heightened Def Con from 0.00104442 to 0.00104443
Heightened Def Con from 0.00104648 to 0.00104649
Heightened Def Con from 0.00104907 to 0.00104907
Heightened Def Con from 0.00105528 to 0.00105528
Heightened Def Con from 0.00106776 to 0.00106776
Heightened Def Con from 0.00106932 to 0.00106932
Heightened Def Con from 0.00108605 to 0.00108605
Heightened Def Con from 0.00111187 to 0.00111187
Heightened Def Con from 0.001134 to 0.001134
Heightened Def Con from 0.00113406 to 0.00113406
Heightened Def Con from 0.00114145 to 0.00114145
Heightened Def Con from 0.00116985 to 0.00116986
Heightened Def Con from 0.00117356 to 0.00117357
Heightened Def Con from 0.00118173 to 0.00118174
Heightened Def Con from 0.00120899 to 0.00120899
Heightened Def Con from 0.00122371 to 0.00122372
Heightened Def Con from 0.00125415 to 0.00125416
Heightened Def Con from 0.00129127 to 0.00129128
Heightened Def Con from 0.00129331 to 0.00129331
Heightened Def Con from 0.00131898 to 0.00131898
Heightened Def Con from 0.00135578 to 0.00135578
Heightened Def Con from 0.00135686 to 0.00135686
Heightened Def Con from 0.00135828 to 0.00135828
Heightened Def Con from 0.0014634 to 0.0014634
Heightened Def Con from 0.00163185 to 0.00163185
Heightened Def Con from 0.00180667 to 0.00180667
Heightened Def Con from 0.00197838 to 0.00197838
Heightened Def Con from 0.00197888 to 0.00197889
Heightened Def Con from 0.00214696 to 0.00214697
Heightened Def Con from 0.00214859 to 0.00214859
Heightened Def Con from 0.00215008 to 0.00215008
Heightened Def Con from 0.0023221 to 0.0023221
Heightened Def Con from 0.0024933 to 0.0024933
Heightened Def Con from 0.00266496 to 0.00266496
Heightened Def Con from 0.0030085 to 0.00300851
Heightened Def Con from 0.0031799 to 0.00317991
Heightened Def Con from 0.00335135 to 0.00335135
Heightened Def Con from 0.00369493 to 0.00369494
Heightened Def Con from 0.00403883 to 0.00403883
Heightened Def Con from 0.00420984 to 0.00420985
Heightened Def Con from 0.00438131 to 0.00438131
Heightened Def Con from 0.00438181 to 0.00438181
Heightened Def Con from 0.00455285 to 0.00455285
Heightened Def Con from 0.00472461 to 0.00472461
Heightened Def Con from 0.00500292 to 0.00500292
Heightened Def Con from 0.00500657 to 0.00500657
Heightened Def Con from 0.00500684 to 0.00500684
Heightened Def Con from 0.00501468 to 0.00501468
Heightened Def Con from 0.00501576 to 0.00501577
Heightened Def Con from 0.00501684 to 0.00501684
Heightened Def Con from 0.00501792 to 0.00501792
Heightened Def Con from 0.00501934 to 0.00501934
Heightened Def Con from 0.0050194 to 0.0050194
Heightened Def Con from 0.00501991 to 0.00501991
Heightened Def Con from 0.00501997 to 0.00501998
Heightened Def Con from 0.00502768 to 0.00502768
Heightened Def Con from 0.00502876 to 0.00502876
Heightened Def Con from 0.0050293 to 0.0050293
Heightened Def Con from 0.00503039 to 0.00503039
Heightened Def Con from 0.00503242 to 0.00503242
Heightened Def Con from 0.00503242 to 0.00503242
Heightened Def Con from 0.00503292 to 0.00503292
Heightened Def Con from 0.00503298 to 0.00503298
Heightened Def Con from 0.00504141 to 0.00504141
Heightened Def Con from 0.00504412 to 0.00504413
Heightened Def Con from 0.00504467 to 0.00504468
Heightened Def Con from 0.00505416 to 0.00505416
Heightened Def Con from 0.00505471 to 0.00505471
Heightened Def Con from 0.00505525 to 0.00505526
Heightened Def Con from 0.00505741 to 0.00505742
Heightened Def Con from 0.00505891 to 0.00505892
Heightened Def Con from 0.00506988 to 0.00506989
Heightened Def Con from 0.00507097 to 0.00507097
Heightened Def Con from 0.00507227 to 0.00507227
Heightened Def Con from 0.0050819 to 0.00508191
Heightened Def Con from 0.00508244 to 0.00508245
Heightened Def Con from 0.00508502 to 0.00508502
Heightened Def Con from 0.00508502 to 0.00508502
Heightened Def Con from 0.0050851 to 0.0050851
Heightened Def Con from 0.0050853 to 0.0050853
Heightened Def Con from 0.00509349 to 0.0050935
Heightened Def Con from 0.0050973 to 0.0050973
Heightened Def Con from 0.0050986 to 0.0050986
Heightened Def Con from 0.00509875 to 0.00509875
Heightened Def Con from 0.00510732 to 0.00510733
Heightened Def Con from 0.00510839 to 0.00510839
Heightened Def Con from 0.00510894 to 0.00510895
Heightened Def Con from 0.00510948 to 0.00510949
Heightened Def Con from 0.00511056 to 0.00511057
Heightened Def Con from 0.00511178 to 0.00511178
Heightened Def Con from 0.00511201 to 0.00511201
Heightened Def Con from 0.0051218 to 0.00512181
Heightened Def Con from 0.00512513 to 0.00512513
Heightened Def Con from 0.00513839 to 0.00513839
Heightened Def Con from 0.00513839 to 0.00513839
Heightened Def Con from 0.00513889 to 0.00513889
Heightened Def Con from 0.00514828 to 0.00514828
Heightened Def Con from 0.0051514 to 0.00515141
Heightened Def Con from 0.0061001 to 0.0061001
Heightened Def Con from 0.0062815 to 0.0062815
Heightened Def Con from 0.00645468 to 0.00645468
Heightened Def Con from 0.00645618 to 0.00645618
Heightened Def Con from 0.00645668 to 0.00645668
Heightened Def Con from 0.00662886 to 0.00662886
Heightened Def Con from 0.0067999 to 0.00679991
Heightened Def Con from 0.00680041 to 0.00680041
Heightened Def Con from 0.00680055 to 0.00680055
Heightened Def Con from 0.00696848 to 0.00696849
Heightened Def Con from 0.00696903 to 0.00696903
Heightened Def Con from 0.00697154 to 0.00697154
Heightened Def Con from 0.00697161 to 0.00697162
Heightened Def Con from 0.00697211 to 0.00697212
Heightened Def Con from 0.00714337 to 0.00714338
Heightened Def Con from 0.00731507 to 0.00731507
Heightened Def Con from 0.00731558 to 0.00731558
Heightened Def Con from 0.00748678 to 0.00748678
Heightened Def Con from 0.00765857 to 0.00765857
Heightened Def Con from 0.00800041 to 0.00800041
Heightened Def Con from 0.00817366 to 0.00817367
Heightened Def Con from 0.00834549 to 0.0083455
Heightened Def Con from 0.00851708 to 0.00851709
Heightened Def Con from 0.00851759 to 0.00851759
Heightened Def Con from 0.00868646 to 0.00868646
Heightened Def Con from 0.00868849 to 0.0086885
Heightened Def Con from 0.00886013 to 0.00886014
Heightened Def Con from 0.00886056 to 0.00886056
Heightened Def Con from 0.00903193 to 0.00903194
Heightened Def Con from 0.00937515 to 0.00937516
Heightened Def Con from 0.0093753 to 0.0093753
Heightened Def Con from 0.00954627 to 0.00954627
Heightened Def Con from 0.00971766 to 0.00971767
Heightened Def Con from 0.00971773 to 0.00971774
Heightened Def Con from 0.00988933 to 0.00988933
Heightened Def Con from 0.0100592 to 0.0100592
Heightened Def Con from 0.0100606 to 0.0100606
Heightened Def Con from 0.010232 to 0.010232
Heightened Def Con from 0.0104024 to 0.0104024
Heightened Def Con from 0.0104034 to 0.0104034
Heightened Def Con from 0.0110894 to 0.0110895
Heightened Def Con from 0.0112616 to 0.0112617
Heightened Def Con from 0.0119466 to 0.0119466
Heightened Def Con from 0.0122907 to 0.0122907
Heightened Def Con from 0.0124617 to 0.0124617
Heightened Def Con from 0.0126323 to 0.0126323
Heightened Def Con from 0.012805 to 0.012805
Heightened Def Con from 0.0133195 to 0.0133195
Heightened Def Con from 0.01332 to 0.01332
Heightened Def Con from 0.0136623 to 0.0136623
Heightened Def Con from 0.0138339 to 0.0138339
Heightened Def Con from 0.0138344 to 0.0138344
Heightened Def Con from 0.0141773 to 0.0141773
Heightened Def Con from 0.0145201 to 0.0145201
Heightened Def Con from 0.0148635 to 0.0148635
Heightened Def Con from 0.0150053 to 0.0150053
Heightened Def Con from 0.0150153 to 0.0150153
Heightened Def Con from 0.015018 to 0.015018
Heightened Def Con from 0.0150189 to 0.0150189
Heightened Def Con from 0.0150194 to 0.0150194
Heightened Def Con from 0.0150276 +to 0.0150276
Heightened Def Con from 0.0150281 to 0.0150281
Heightened Def Con from 0.0150303 to 0.0150303
Heightened Def Con from 0.0150308 to 0.0150308
Heightened Def Con from 0.0150318 to 0.0150318
Heightened Def Con from 0.0150323 to 0.0150323
Heightened Def Con from 0.0150323 to 0.0150323
Heightened Def Con from 0.0150406 to 0.0150406
Heightened Def Con from 0.0150417 to 0.0150417
Heightened Def Con from 0.0150428 to 0.0150428
Heightened Def Con from 0.0150453 to 0.0150453
Heightened Def Con from 0.0150454 to 0.0150454
Heightened Def Con from 0.0150533 to 0.0150533
Heightened Def Con from 0.015056 to 0.015056
Heightened Def Con from 0.0150585 to 0.0150585
Heightened Def Con from 0.0150673 to 0.0150673
Heightened Def Con from 0.0150678 to 0.0150678
Heightened Def Con from 0.0150684 to 0.0150684
Heightened Def Con from 0.0150689 +to 0.0150689
Heightened Def Con from 0.015071 to 0.015071
Heightened Def Con from 0.0150715 to 0.0150715
Heightened Def Con from 0.0150717 to 0.0150717
Heightened Def Con from 0.0150718 to 0.0150718
Heightened Def Con from 0.0150792 to 0.0150792
Heightened Def Con from 0.0150797 to 0.0150797
Heightened Def Con from 0.0150843 to 0.0150843
Heightened Def Con from 0.0150923 to 0.0150923
Heightened Def Con from 0.0150945 to 0.0150945
Heightened Def Con from 0.015097 to 0.015097
Heightened Def Con from 0.015097 to 0.015097
Heightened Def Con from 0.0150975 to 0.0150975
Heightened Def Con from 0.0150977 to 0.0150977
Heightened Def Con from 0.0151055 to 0.0151055
Heightened Def Con from 0.0151082 to 0.0151082
Heightened Def Con from 0.0151106 to 0.0151106
Heightened Def Con from 0.0151194 to 0.0151194
Heightened Def Con from 0.01512 to 0.01512
Heightened Def Con from 0.0151211 to 0.0151211
Heightened Def Con from 0.0151216 to 0.0151216
Heightened Def Con from 0.0151221 to 0.0151221
Heightened Def Con from 0.0151227 to 0.0151227
Heightened Def Con from 0.0151236 to 0.0151236
Heightened Def Con from 0.0151241 to 0.0151241
Heightened Def Con from 0.0151329 to 0.0151329
Heightened Def Con from 0.0151339 to 0.015134
Heightened Def Con from 0.015135 to 0.015135
Heightened Def Con from 0.0151361 to 0.0151361
Heightened Def Con from 0.0151371 to 0.0151371
Heightened Def Con from 0.0151371 to 0.0151371
Heightened Def Con from 0.0151374 to 0.0151374
Heightened Def Con from 0.0151376 to 0.0151376
Heightened Def Con from 0.0151464 to 0.0151464
Heightened Def Con from 0.015148 to 0.015148
Heightened Def Con from 0.0151485 to 0.0151485
Heightened Def Con from 0.0159021 to 0.0159021
Heightened Def Con from 0.0159022 to 0.0159022
Heightened Def Con from 0.0160935 to 0.0160935
Heightened Def Con from 0.0162715 to 0.0162715
Heightened Def Con from 0.0162741 to 0.0162741
Heightened Def Con from 0.0162743 to 0.0162743
Heightened Def Con from 0.0164475 to 0.0164475
Heightened Def Con from 0.016621 to 0.016621
Heightened Def Con from 0.0167893 to 0.0167894
Heightened Def Con from 0.0167925 to 0.0167925
Heightened Def Con from 0.0169612 to 0.0169612
Heightened Def Con from 0.0169643 to 0.0169643
Heightened Def Con from 0.0171359 to 0.0171359
Heightened Def Con from 0.017136 to 0.017136
Heightened Def Con from 0.0176517 to 0.0176517
Heightened Def Con from 0.0178228 to 0.0178228
Heightened Def Con from 0.0178229 to 0.0178229
Heightened Def Con from 0.0178234 to 0.0178234
Heightened Def Con from 0.0179944 to 0.0179945
Heightened Def Con from 0.0183364 to 0.0183364
Heightened Def Con from 0.0183379 to 0.0183379
Heightened Def Con from 0.0185095 to 0.0185095
Heightened Def Con from 0.0186808 to 0.0186808
Heightened Def Con from 0.0186813 to 0.0186813
Heightened Def Con from 0.0186814 to 0.0186814
Heightened Def Con from 0.0188527 to 0.0188527
Heightened Def Con from 0.0190241 to 0.0190241
Heightened Def Con from 0.0191942 to 0.0191942
Heightened Def Con from 0.01971 to 0.01971
Heightened Def Con from 0.0200512 to 0.0200512
Heightened Def Con from 0.0202229 to 0.0202229
Heightened Def Con from 0.0203946 to 0.0203946
Heightened Def Con from 0.0203951 to 0.0203951
Heightened Def Con from 0.020396 to 0.020396
Heightened Def Con from 0.0209108 to 0.0209108
Heightened Def Con from 0.0209109 to 0.0209109
Heightened Def Con from 0.0209114 to 0.0209114
Heightened Def Con from 0.0210813 to 0.0210813
Heightened Def Con from 0.0210827 to 0.0210827
Heightened Def Con from 0.0212539 to 0.0212539
Heightened Def Con from 0.021597 to 0.021597
Heightened Def Con from 0.0221114 to 0.0221114
Heightened Def Con from 0.0221119 to 0.0221119
Heightened Def Con from 0.0224539 to 0.0224539
Heightened Def Con from 0.0227972 to 0.0227972
Heightened Def Con from 0.0238258 to 0.0238258
Heightened Def Con from 0.024166 to 0.024166
Heightened Def Con from 0.0241691 to 0.0241691
Heightened Def Con from 0.0245119 to 0.0245119
Heightened Def Con from 0.0246825 to 0.0246825
Heightened Def Con from 0.0246839 to 0.0246839
Heightened Def Con from 0.0246841 to 0.0246841
Heightened Def Con from 0.0250014 to 0.0250014
Heightened Def Con from 0.0250067 to 0.0250067
Heightened Def Con from 0.0250173 to 0.0250173
Heightened Def Con from 0.0250178 to 0.0250178
Heightened Def Con from 0.0250193 to 0.0250193
Heightened Def Con from 0.025028 to 0.025028
Heightened Def Con from 0.0250315 to 0.0250315
Heightened Def Con from 0.0250316 to 0.0250316
Heightened Def Con from 0.0250319 to 0.0250319
Heightened Def Con from 0.0250321 to 0.0250321
Heightened Def Con from 0.0250322 to 0.0250322
Heightened Def Con from 0.0250399 to 0.0250399
Heightened Def Con from 0.025041 to 0.025041
Heightened Def Con from 0.0250421 to 0.0250421
Heightened Def Con from 0.0250437 to 0.0250437
Heightened Def Con from 0.0250446 to 0.0250446
Heightened Def Con from 0.0250449 to 0.0250449
Heightened Def Con from 0.0250531 to 0.0250531
Heightened Def Con from 0.0250536 to 0.0250536
Heightened Def Con from 0.0250547 to 0.0250547
Heightened Def Con from 0.0250558 to 0.0250558
Heightened Def Con from 0.0250563 to 0.0250563
Heightened Def Con from 0.0250578 to 0.0250578
Heightened Def Con from 0.0250578 to 0.0250578
Heightened Def Con from 0.0250583 to 0.0250583
Heightened Def Con from 0.0250585 to 0.0250585
Heightened Def Con from 0.0250687 to 0.0250687
Heightened Def Con from 0.0250698 to 0.0250698
Heightened Def Con from 0.0250708 to 0.0250708
Heightened Def Con from 0.0250713 to 0.0250713
Heightened Def Con from 0.025079 to 0.025079
Heightened Def Con from 0.0250806 to 0.0250806
Heightened Def Con from 0.0250812 to 0.0250812
Heightened Def Con from 0.0250828 to 0.0250828
Heightened Def Con from 0.0250837 to 0.0250837
Heightened Def Con from 0.0250843 to 0.0250843
Heightened Def Con from 0.0250921 to 0.0250921
Heightened Def Con from 0.0250926 to 0.0250926
Heightened Def Con from 0.0250953 to 0.0250953
Heightened Def Con from 0.0250968 to 0.0250968
Heightened Def Con from 0.0250973 to 0.0250973
Heightened Def Con from 0.0250974 to 0.0250974
Heightened Def Con from 0.0251085 to 0.0251085
Heightened Def Con from 0.0251085 to 0.0251085
Heightened Def Con from 0.02511 to 0.02511
Heightened Def Con from 0.0251105 to 0.0251105
Heightened Def Con from 0.0251106 to 0.0251106
Heightened Def Con from 0.0251186 to 0.0251186
Heightened Def Con from 0.0251202 to 0.0251202
Heightened Def Con from 0.0251213 to 0.0251213
Heightened Def Con from 0.0251233 to 0.0251233
Heightened Def Con from 0.0251234 to 0.0251234
Heightened Def Con from 0.0251336 to 0.0251336
Heightened Def Con from 0.0251336 to 0.0251336
Heightened Def Con from 0.0251341 to 0.0251341
Heightened Def Con from 0.0251347 to 0.0251347
Heightened Def Con from 0.0251352 to 0.0251352
Heightened Def Con from 0.0251358 to 0.0251358
Heightened Def Con from 0.0251374 to 0.0251374
Heightened Def Con from 0.0251471 to 0.0251471
Heightened Def Con from 0.0258935 to 0.0258935
Heightened Def Con from 0.0260849 to 0.0260849
Heightened Def Con from 0.0260854 to 0.0260854
Heightened Def Con from 0.0262656 to 0.0262657
Heightened Def Con from 0.026266 to 0.026266
Heightened Def Con from 0.0262662 to 0.0262662
Heightened Def Con from 0.0264409 to 0.0264409
Heightened Def Con from 0.026613 to 0.026613
Heightened Def Con from 0.027128 to 0.027128
Heightened Def Con from 0.0273002 to 0.0273002
Heightened Def Con from 0.0279862 to 0.0279862
Heightened Def Con from 0.0283286 to 0.0283286
Heightened Def Con from 0.0288443 to 0.0288443
Heightened Def Con from 0.0290158 to 0.0290158
Heightened Def Con from 0.0290163 to 0.0290163
Heightened Def Con from 0.0290164 to 0.0290164
Heightened Def Con from 0.0295305 to 0.0295305
Heightened Def Con from 0.0303883 to 0.0303883
Heightened Def Con from 0.0305567 to 0.0305567
Heightened Def Con from 0.030732 to 0.030732
Heightened Def Con from 0.0310748 to 0.0310748
Heightened Def Con from 0.0312464 to 0.0312464
Heightened Def Con from 0.0317613 to 0.0317613
Heightened Def Con from 0.0324468 to 0.0324468
Heightened Def Con from 0.0326175 to 0.0326175
Heightened Def Con from 0.0329613 to 0.0329613
Heightened Def Con from 0.0331333 to 0.0331333
Heightened Def Con from 0.0333043 to 0.0333043
Heightened Def Con from 0.0334757 to 0.0334757
Heightened Def Con from 0.0338189 to 0.0338189
Heightened Def Con from 0.033819 to 0.033819
Heightened Def Con from 0.0338195 to 0.0338195
Heightened Def Con from 0.0338196 to 0.0338196
Heightened Def Con from 0.0339905 to 0.0339905
Heightened Def Con from 0.0350013 to 0.0350014
Heightened Def Con from 0.0350019 to 0.0350019
Heightened Def Con from 0.0350024 to 0.0350024
Heightened Def Con from 0.0350046 to 0.0350046
Heightened Def Con from 0.0350064 to 0.0350064
Heightened Def Con from 0.0350065 to 0.0350065
Heightened Def Con from 0.0350067 to 0.0350067
Heightened Def Con from 0.0350145 to 0.0350145
Heightened Def Con from 0.0350177 to 0.0350177
Heightened Def Con from 0.0350186 to 0.0350186
Heightened Def Con from 0.0350192 to 0.0350192
Heightened Def Con from 0.0350193 to 0.0350193
Heightened Def Con from 0.0350289 to 0.0350289
Heightened Def Con from 0.03503 to 0.03503
Heightened Def Con from 0.0350306 to 0.0350306
Heightened Def Con from 0.0350315 to 0.0350315
Heightened Def Con from 0.0350318 to 0.0350318
Heightened Def Con from 0.0350408 to 0.0350408
Heightened Def Con from 0.0350445 to 0.0350445
Heightened Def Con from 0.0350529 to 0.0350529
Heightened Def Con from 0.0350556 to 0.0350556
Heightened Def Con from 0.0350582 to 0.0350582
Heightened Def Con from 0.0350804 to 0.0350804
Heightened Def Con from 0.035081 to 0.035081
Heightened Def Con from 0.0350836 to 0.0350836
Heightened Def Con from 0.0350836 to 0.0350836
Heightened Def Con from 0.0350841 to 0.0350841
Heightened Def Con from 0.0350919 to 0.0350919
Heightened Def Con from 0.0350969 to 0.0350969
Heightened Def Con from 0.0350971 to 0.0350971
Heightened Def Con from 0.0351072 to 0.0351072
Heightened Def Con from 0.0351097 to 0.0351097
Heightened Def Con from 0.0351102 to 0.0351102
Heightened Def Con from 0.0351102 to 0.0351102
Heightened Def Con from 0.0351183 to 0.0351183
Heightened Def Con from 0.0351199 to 0.0351199
Heightened Def Con from 0.035121 to 0.035121
Heightened Def Con from 0.0351216 to 0.0351216
Heightened Def Con from 0.035123 to 0.035123
Heightened Def Con from 0.0351231 to 0.0351231
Heightened Def Con from 0.0351231 to 0.0351231
Heightened Def Con from 0.0351236 to 0.0351236
Heightened Def Con from 0.0351236 to 0.0351236
Heightened Def Con from 0.0351322 to 0.0351322
Heightened Def Con from 0.0351333 to 0.0351333
Heightened Def Con from 0.0351344 to 0.0351344
Heightened Def Con from 0.0351344 to 0.0351344
Heightened Def Con from 0.0351364 to 0.0351364
Heightened Def Con from 0.0351364 to 0.0351364
Heightened Def Con from 0.0351367 to 0.0351367
Heightened Def Con from 0.0351369 to 0.0351369
Heightened Def Con from 0.0351369 to 0.0351369
Heightened Def Con from 0.0351457 to 0.0351457
Heightened Def Con from 0.0351468 to 0.0351468
Heightened Def Con from 0.0351474 to 0.0351474
Heightened Def Con from 0.0351479 to 0.0351479
Heightened Def Con from 0.0351485 to 0.0351485
Heightened Def Con from 0.0351499 to 0.0351499
Heightened Def Con from 0.0362598 to 0.0362598
Heightened Def Con from 0.0364349 to 0.0364349
Heightened Def Con from 0.0364354 to 0.0364354
Heightened Def Con from 0.0366074 to 0.0366074
Heightened Def Con from 0.0376374 to 0.0376374
Heightened Def Con from 0.0376379 to 0.0376379
Heightened Def Con from 0.0378091 to 0.0378091
Heightened Def Con from 0.038667 to 0.038667
Heightened Def Con from 0.0390104 to 0.0390104
Heightened Def Con from 0.0393535 to 0.0393535
Heightened Def Con from 0.0395244 to 0.0395245
Heightened Def Con from 0.0396964 to 0.0396964
Heightened Def Con from 0.0400389 to 0.0400389
Heightened Def Con from 0.040723 to 0.040723
Heightened Def Con from 0.0412396 to 0.0412396
Heightened Def Con from 0.0414095 to 0.0414095
Heightened Def Con from 0.0414109 to 0.0414109
Heightened Def Con from 0.0417546 to 0.0417546
Heightened Def Con from 0.042098 to 0.042098
Heightened Def Con from 0.0422688 to 0.0422688
Heightened Def Con from 0.0422689 to 0.0422689
Heightened Def Con from 0.0431265 to 0.0431265
Heightened Def Con from 0.0431265 to 0.0431265
Heightened Def Con from 0.043298 to 0.043298
Heightened Def Con from 0.0444986 to 0.0444986
Heightened Def Con from 0.0444987 to 0.0444987
Heightened Def Con from 0.0446695 to 0.0446695
Heightened Def Con from 0.0446695 to 0.0446695
Heightened Def Con from 0.0450018 to 0.0450018
Heightened Def Con from 0.0450051 to 0.0450051
Heightened Def Con from 0.0450065 to 0.0450065
Heightened Def Con from 0.0450155 to 0.0450155
Heightened Def Con from 0.0450177 to 0.0450177
Heightened Def Con from 0.0450191 to 0.0450191
Heightened Def Con from 0.0450272 to 0.0450272
Heightened Def Con from 0.0450283 to 0.0450283
Heightened Def Con from 0.0450288 to 0.0450288
Heightened Def Con from 0.0450293 to 0.0450294
Heightened Def Con from 0.0450314 to 0.0450314
Heightened Def Con from 0.0450423 to 0.0450423
Heightened Def Con from 0.0450434 to 0.0450434
Heightened Def Con from 0.0450443 to 0.0450443
Heightened Def Con from 0.0450448 to 0.0450448
Heightened Def Con from 0.0450527 to 0.0450527
Heightened Def Con from 0.0450533 to 0.0450533
Heightened Def Con from 0.0450543 to 0.0450544
Heightened Def Con from 0.045056 to 0.045056
Heightened Def Con from 0.0450574 to 0.0450574
Heightened Def Con from 0.0450575 to 0.0450575
Heightened Def Con from 0.045058 to 0.045058
Heightened Def Con from 0.0450673 to 0.0450673
Heightened Def Con from 0.0450678 to 0.0450678
Heightened Def Con from 0.0450703 to 0.0450703
Heightened Def Con from 0.0450708 to 0.0450708
Heightened Def Con from 0.0450709 to 0.0450709
Heightened Def Con from 0.0450797 to 0.0450797
Heightened Def Con from 0.0450802 to 0.0450802
Heightened Def Con from 0.0450818 to 0.0450818
Heightened Def Con from 0.0450824 to 0.0450824
Heightened Def Con from 0.0450833 to 0.0450833
Heightened Def Con from 0.0450838 to 0.0450838
Heightened Def Con from 0.0450938 to 0.0450938
Heightened Def Con from 0.0450943 to 0.0450943
Heightened Def Con from 0.0450964 to 0.0450964
Heightened Def Con from 0.0450969 to 0.0450969
Heightened Def Con from 0.045108 to 0.045108
Heightened Def Con from 0.0451095 +to 0.0451095
Heightened Def Con from 0.04511 to 0.04511
Heightened Def Con from 0.0451202 to 0.0451202
Heightened Def Con from 0.0451228 to 0.0451228
Heightened Def Con from 0.0451336 to 0.0451336
Heightened Def Con from 0.0451352 to 0.0451352
Heightened Def Con from 0.0451362 to 0.0451362
Heightened Def Con from 0.0451369 to 0.0451369
Heightened Def Con from 0.0451449 to 0.0451449
Heightened Def Con from 0.0451454 to 0.0451454
Heightened Def Con from 0.0451465 to 0.0451465
Heightened Def Con from 0.0451487 to 0.0451487
Heightened Def Con from 0.0451496 to 0.0451496
Heightened Def Con from 0.0451496 to 0.0451496
Heightened Def Con from 0.0458804 to 0.0458804
Heightened Def Con from 0.0460727 to 0.0460727
Heightened Def Con from 0.0460728 to 0.0460728
Heightened Def Con from 0.0464297 to 0.0464297
Heightened Def Con from 0.0466019 to 0.0466019
Heightened Def Con from 0.046602 to 0.046602
Heightened Def Con from 0.0467734 to 0.0467734
Heightened Def Con from 0.0469456 to 0.0469456
Heightened Def Con from 0.0478043 to 0.0478043
Heightened Def Con from 0.0484906 to 0.0484906
Heightened Def Con from 0.0488334 to 0.0488334
Heightened Def Con from 0.0490023 to 0.0490023
Heightened Def Con from 0.0491775 to 0.0491775
Heightened Def Con from 0.0493484 to 0.0493484
Heightened Def Con from 0.0493489 to 0.0493489
Heightened Def Con from 0.0493491 to 0.0493491
Heightened Def Con from 0.0500345 to 0.0500345
Heightened Def Con from 0.0503782 to 0.0503782
Heightened Def Con from 0.0505492 to 0.0505492
Heightened Def Con from 0.0508909 to 0.0508909
Heightened Def Con from 0.0510639 to 0.0510639
Heightened Def Con from 0.051064 to 0.051064
Heightened Def Con from 0.0510645 to 0.0510645
Heightened Def Con from 0.0512354 to 0.0512354
Heightened Def Con from 0.0512354 to 0.0512354
Heightened Def Con from 0.0512359 to 0.0512359
Heightened Def Con from 0.0514071 to 0.0514071
Heightened Def Con from 0.0515788 to 0.0515788
Heightened Def Con from 0.0515789 to 0.0515789
Heightened Def Con from 0.0517508 to 0.0517508
Heightened Def Con from 0.05192 to 0.05192
Heightened Def Con from 0.0519211 to 0.0519211
Heightened Def Con from 0.0520936 to 0.0520936
Heightened Def Con from 0.0522628 to 0.0522628
Heightened Def Con from 0.0527795 to 0.0527795
Heightened Def Con from 0.0529513 to 0.0529513
Heightened Def Con from 0.0532933 to 0.0532933
Heightened Def Con from 0.053466 to 0.053466
Heightened Def Con from 0.0538087 to 0.0538087
Heightened Def Con from 0.0541484 to 0.0541484
Heightened Def Con from 0.0541515 to 0.0541515
Heightened Def Con from 0.0543232 to 0.0543232
Heightened Def Con from 0.055005 to 0.055005
Heightened Def Con from 0.0550059 to 0.0550059
Heightened Def Con from 0.055006 to 0.055006
Heightened Def Con from 0.0550065 to 0.0550065
Heightened Def Con from 0.0550144 to 0.0550144
Heightened Def Con from 0.0550149 to 0.0550149
Heightened Def Con from 0.0550154 to 0.0550154
Heightened Def Con from 0.055016 to 0.055016
Heightened Def Con from 0.0550185 to 0.0550185
Heightened Def Con from 0.0550185 to 0.0550186
Heightened Def Con from 0.0550191 to 0.0550191
Heightened Def Con from 0.0550191 to 0.0550191
Heightened Def Con from 0.0550293 to 0.0550293
Heightened Def Con from 0.0550313 to 0.0550313
Heightened Def Con from 0.0550318 to 0.0550318
Heightened Def Con from 0.0550406 to 0.0550406
Heightened Def Con from 0.0550412 to 0.0550412
Heightened Def Con from 0.0550417 to 0.0550417
Heightened Def Con from 0.0550443 to 0.0550443
Heightened Def Con from 0.0550448 to 0.0550448
Heightened Def Con from 0.0550448 to 0.0550448
Heightened Def Con from 0.0550526 to 0.0550526
Heightened Def Con from 0.0550543 to 0.0550543
Heightened Def Con from 0.0550559 to 0.0550559
Heightened Def Con from 0.0550573 to 0.0550573
Heightened Def Con from 0.0550672 to 0.0550672
Heightened Def Con from 0.0550677 to 0.0550677
Heightened Def Con from 0.0550683 to 0.0550683
Heightened Def Con from 0.0550694 to 0.0550694
Heightened Def Con from 0.0550702 to 0.0550702
Heightened Def Con from 0.0550703 to 0.0550703
Heightened Def Con from 0.0550703 to 0.0550703
Heightened Def Con from 0.0550708 to 0.0550708
Heightened Def Con from 0.055079 to 0.055079
Heightened Def Con from 0.0550801 to 0.0550801
Heightened Def Con from 0.0550817 to 0.0550818
Heightened Def Con from 0.0550915 to 0.0550915
Heightened Def Con from 0.0550921 to 0.0550921
Heightened Def Con from 0.0550937 to 0.0550937
Heightened Def Con from 0.0550942 to 0.0550943
Heightened Def Con from 0.0550948 to 0.0550948
Heightened Def Con from 0.0550953 to 0.0550953
Heightened Def Con from 0.0550963 to 0.0550963
Heightened Def Con from 0.0550963 to 0.0550963
Heightened Def Con from 0.0550968 to 0.0550968
Heightened Def Con from 0.0551052 to 0.0551052
Heightened Def Con from 0.0551063 to 0.0551063
Heightened Def Con from 0.0551079 to 0.0551079
Heightened Def Con from 0.0551094 to 0.0551094
Heightened Def Con from 0.0551094 to 0.0551094
Heightened Def Con from 0.0551185 to 0.0551185
Heightened Def Con from 0.055119 to 0.055119
Heightened Def Con from 0.0551217 to 0.0551217
Heightened Def Con from 0.0551227 to 0.0551227
Heightened Def Con from 0.0551227 to 0.0551227
Heightened Def Con from 0.0551335 to 0.0551335
Heightened Def Con from 0.0551361 +to 0.0551361
Heightened Def Con from 0.055147 to 0.055147
Heightened Def Con from 0.0551475 +to 0.0551475
Heightened Def Con from 0.0551486 to 0.0551486
Heightened Def Con from 0.0551495 to 0.0551495
Heightened Def Con from 0.0551495 to 0.0551495
Heightened Def Con from 0.0551498 to 0.0551498
Heightened Def Con from 0.0560701 to 0.0560701
Heightened Def Con from 0.0562496 to 0.0562496
Heightened Def Con from 0.0562517 to 0.0562517
Heightened Def Con from 0.0564268 to 0.0564268
Heightened Def Con from 0.0565974 to 0.0565974
Heightened Def Con from 0.0569418 to 0.0569418
Heightened Def Con from 0.0578003 to 0.0578003
Heightened Def Con from 0.0578004 to 0.0578004
Heightened Def Con from 0.0581437 to 0.0581437
Heightened Def Con from 0.0583123 to 0.0583123
Heightened Def Con from 0.058485 to 0.058485
Heightened Def Con from 0.0588296 to 0.0588296
Heightened Def Con from 0.059173 to 0.059173
Heightened Def Con from 0.0593429 to 0.0593429
Heightened Def Con from 0.0596879 to 0.0596879
Heightened Def Con from 0.0605455 to 0.0605455
Heightened Def Con from 0.0607155 to 0.0607155
Heightened Def Con from 0.060717 to 0.060717
Heightened Def Con from 0.0607175 to 0.0607175
Heightened Def Con from 0.0607176 to 0.0607176
Heightened Def Con from 0.0610586 to 0.0610586
Heightened Def Con from 0.06106 to 0.06106
Heightened Def Con from 0.0612303 to 0.0612303
Heightened Def Con from 0.0612323 to 0.0612323
Heightened Def Con from 0.0615748 to 0.0615748
Heightened Def Con from 0.0617438 to 0.0617438
Heightened Def Con from 0.0617449 to 0.0617449
Heightened Def Con from 0.0617464 to 0.0617464
Heightened Def Con from 0.0619181 to 0.0619181
Heightened Def Con from 0.0619181 to 0.0619181
Heightened Def Con from 0.0620896 to 0.0620896
Heightened Def Con from 0.0622607 to 0.0622608
Heightened Def Con from 0.0626041 to 0.0626041
Heightened Def Con from 0.0629471 to 0.0629471
Heightened Def Con from 0.0631188 to 0.0631188
Heightened Def Con from 0.0638054 to 0.0638054
Heightened Def Con from 0.0638056 to 0.0638056
Heightened Def Con from 0.0639768 to 0.0639768
Heightened Def Con from 0.0641482 to 0.0641482
Heightened Def Con from 0.0643185 to 0.0643185
Heightened Def Con from 0.0648345 to 0.0648345
Heightened Def Con from 0.0651773 to 0.0651774
Heightened Def Con from 0.0658626 to 0.0658626
Heightened Def Con from 0.0662026 to 0.0662026
Heightened Def Con from 0.0668914 to 0.0668914
Heightened Def Con from 0.0672344 to 0.0672344
Heightened Def Con from 0.0672349 to 0.0672349
Heightened Def Con from 0.0675773 to 0.0675773
Heightened Def Con from 0.0675774 to 0.0675774
Heightened Def Con from 0.0679201 to 0.0679201
Heightened Def Con from 0.0682633 to 0.0682633
Heightened Def Con from 0.0687774 to 0.0687774
Heightened Def Con from 0.0687779 to 0.0687779
Heightened Def Con from 0.0687779 to 0.0687779
Heightened Def Con from 0.0689491 to 0.0689491
Heightened Def Con from 0.069289 to 0.069289
Heightened Def Con from 0.0698065 to 0.0698065
Heightened Def Con from 0.0703214 to 0.0703214
Heightened Def Con from 0.0704931 to 0.0704931
Heightened Def Con from 0.0708359 to 0.0708359
Heightened Def Con from 0.0711791 to 0.0711791
Heightened Def Con from 0.0715222 to 0.0715222
Heightened Def Con from 0.0716907 to 0.0716907
Heightened Def Con from 0.0716938 to 0.0716938
Heightened Def Con from 0.0723762 to 0.0723762
Heightened Def Con from 0.0727224 to 0.0727224
Heightened Def Con from 0.0728939 to 0.0728939
Heightened Def Con from 0.0732366 to 0.0732366
Heightened Def Con from 0.0732367 to 0.0732367
Heightened Def Con from 0.0732372 to 0.0732372
Heightened Def Con from 0.0735798 to 0.0735798
Heightened Def Con from 0.0737513 to 0.0737513
Heightened Def Con from 0.074091 to 0.074091
Heightened Def Con from 0.0747804 to 0.0747804
Heightened Def Con from 0.0749525 to 0.0749525
Heightened Def Con from 0.0751235 to 0.0751235
Heightened Def Con from 0.0752951 to 0.0752951
Heightened Def Con from 0.0768386 to 0.0768386
Heightened Def Con from 0.0768391 to 0.0768391
Heightened Def Con from 0.0770102 to 0.0770102
Heightened Def Con from 0.0770107 to 0.0770107
Heightened Def Con from 0.0773526 to 0.0773526
Heightened Def Con from 0.0773527 to 0.0773527
Heightened Def Con from 0.0775241 to 0.0775241
Heightened Def Con from 0.0776955 to 0.0776955
Heightened Def Con from 0.0776956 to 0.0776956
Heightened Def Con from 0.0780384 to 0.0780384
Heightened Def Con from 0.0783815 to 0.0783815
Heightened Def Con from 0.0783816 to 0.0783816
Heightened Def Con from 0.0783821 to 0.0783821
Heightened Def Con from 0.078553 to 0.078553
Heightened Def Con from 0.0785535 to 0.0785535
Heightened Def Con from 0.0790646 to 0.0790646
Heightened Def Con from 0.0790677 to 0.0790677
Heightened Def Con from 0.0794109 to 0.0794109
Heightened Def Con from 0.0794114 to 0.0794114
Heightened Def Con from 0.0794116 to 0.0794116
Heightened Def Con from 0.0795825 to 0.0795825
Heightened Def Con from 0.080613 to 0.080613
Heightened Def Con from 0.0809526 to 0.0809526
Heightened Def Con from 0.0809531 to 0.0809531
Heightened Def Con from 0.0812987 to 0.0812987
Heightened Def Con from 0.0812988 to 0.0812988
Heightened Def Con from 0.0812993 to 0.0812993
Heightened Def Con from 0.0823285 to 0.0823286
Heightened Def Con from 0.0825003 to 0.0825003
Heightened Def Con from 0.0826715 to 0.0826715
Heightened Def Con from 0.0830153 to 0.0830153
Heightened Def Con from 0.0831864 to 0.0831864
Heightened Def Con from 0.0833576 to 0.0833576
Heightened Def Con from 0.0835292 to 0.0835292
Heightened Def Con from 0.0837006 to 0.0837006
Heightened Def Con from 0.0837011 to 0.0837011
Heightened Def Con from 0.0842158 to 0.0842158
Heightened Def Con from 0.084216 to 0.084216
Heightened Def Con from 0.0845581 to 0.0845581
Heightened Def Con from 0.0845586 to 0.0845586
Heightened Def Con from 0.0847296 to 0.0847296
Heightened Def Con from 0.0847297 to 0.0847297
Heightened Def Con from 0.0849013 to 0.0849014
Heightened Def Con from 0.0850729 to 0.0850729
Heightened Def Con from 0.0850729 to 0.085073
Heightened Def Con from 0.0850735 to 0.0850735
Heightened Def Con from 0.0852445 to 0.0852445
Heightened Def Con from 0.0854159 to 0.0854159
Heightened Def Con from 0.0857588 to 0.0857588
Heightened Def Con from 0.0859304 to 0.0859304
Heightened Def Con from 0.0861022 to 0.0861022
Heightened Def Con from 0.0861024 to 0.0861024
Heightened Def Con from 0.0864448 to 0.0864448
Heightened Def Con from 0.0867874 to 0.0867874
Heightened Def Con from 0.0871303 to 0.0871303
Heightened Def Con from 0.0876446 to 0.0876446
Heightened Def Con from 0.0878161 to 0.0878161
Heightened Def Con from 0.0879882 to 0.0879882
Heightened Def Con from 0.0881593 to 0.0881593
Heightened Def Con from 0.0883308 to 0.0883308
Heightened Def Con from 0.0883309 to 0.0883309
Heightened Def Con from 0.0886739 to 0.0886739
Heightened Def Con from 0.0890169 to 0.0890169
Heightened Def Con from 0.0890169 to 0.0890169
Heightened Def Con from 0.0891883 to 0.0891883
Heightened Def Con from 0.0895286 to 0.0895286
Heightened Def Con from 0.0898744 to 0.0898744
Heightened Def Con from 0.0907317 to 0.0907317
Heightened Def Con from 0.0909032 to 0.0909032
Heightened Def Con from 0.0910748 to 0.0910748
Heightened Def Con from 0.0912463 to 0.0912463
Heightened Def Con from 0.0915896 to 0.0915896
Heightened Def Con from 0.0922752 to 0.0922752
Heightened Def Con from 0.0927896 to 0.0927896
Heightened Def Con from 0.0929615 to 0.0929615
Heightened Def Con from 0.0939914 to 0.0939914
Heightened Def Con from 0.0941629 to 0.0941629
Heightened Def Con from 0.0941634 to 0.0941634
Heightened Def Con from 0.0941635 to 0.0941635
Heightened Def Con from 0.0943344 to 0.0943344
Heightened Def Con from 0.0946773 to 0.0946773
Heightened Def Con from 0.0948493 to 0.0948493
Heightened Def Con from 0.0948494 to 0.0948494
Heightened Def Con from 0.0955344 to 0.0955344
Heightened Def Con from 0.096218 to 0.096218
Heightened Def Con from 0.0965629 to 0.0965629
Heightened Def Con from 0.0965634 to 0.0965634
Heightened Def Con from 0.096735 to 0.096735
Heightened Def Con from 0.0974209 to 0.0974209
Heightened Def Con from 0.0975929 to 0.0975929
Heightened Def Con from 0.097764 to 0.097764
Heightened Def Con from 0.0984507 to 0.0984507
Heightened Def Con from 0.0989655 to 0.0989655
Heightened Def Con from 0.0993058 to 0.0993058
Heightened Def Con from 0.09948 to 0.09948
Heightened Def Con from 0.0994801 to 0.0994801
Heightened Def Con from 0.0996514 to 0.0996514
Heightened Def Con from 0.0998227 to 0.0998227
Heightened Def Con from 0.0999948 to 0.0999948

Date: Wed Feb 08 16:54:37 2017
Total elapsed time: 395.383 seconds.

tnom = 27
temp = 27
method = modified trap
totiter = 21472000
traniter = 21471976
tranpoints = 6076802
accept = 4415304
rejected = 1663597
matrix size = 58
fillins = 20
solver = Normal
Thread vector: 12.7/11.1[2] 5.1/4.0[2] 2.1/1.6[2] 0.3/0.6[1]  2592/500
Matrix Compiler1: 3.96 KB object code size  0.9/0.6/[0.2]
Matrix Compiler2: 4.54 KB object code size  0.5/0.7/[0.5]


