Circuit: * C:\Users\Alexey Revinski\Documents\1_CLASS\BME 390-2\IAR Projects\BME390\LTSpice\PulseGenerator1\PulseGen1.asc

Instance "m:m2:1": Width narrower than recommended for a level 3 MOSFET.
Instance "m:m3:1": Width narrower than recommended for a level 3 MOSFET.
Direct Newton iteration failed to find .op point.  (Use ".option noopiter" to skip.)
Starting Gmin stepping
Gmin = 10
Gmin = 1.07374
Gmin = 0.115292
Gmin = 0.0123794
Gmin = 0.00132923
Gmin = 0.000142725
Gmin = 1.5325e-005
Gmin = 1.6455e-006
Gmin = 1.76685e-007
Gmin = 1.89714e-008
Gmin = 2.03704e-009
Gmin = 2.18725e-010
Gmin = 2.34854e-011
Gmin = 2.52173e-012
Gmin = 2.70769e-013
Gmin = 0
Gmin stepping succeeded in finding the operating point.

Heightened Def Con from 0.000179428 to 0.000179429
Heightened Def Con from 0.000253331 to 0.000253332
Heightened Def Con from 0.000372881 to 0.000372881
Heightened Def Con from 0.000372881 +++to 0.000372881
Heightened Def Con from 0.000372881 +to 0.000372881
Heightened Def Con from 0.000373645 +to 0.000373645
Heightened Def Con from 0.000373645 to 0.000373645
Heightened Def Con from 0.000373645 to 0.000373645
Heightened Def Con from 0.000373645 to 0.000373645
Heightened Def Con from 0.000373645 to 0.000373645
Heightened Def Con from 0.000373645 to 0.000373645
Heightened Def Con from 0.000373645 +to 0.000373645
Heightened Def Con from 0.000373645 to 0.000373645
Heightened Def Con from 0.000373645 ++to 0.000373645
Heightened Def Con from 0.000373645 to 0.000373645
Heightened Def Con from 0.000373645 +to 0.000373645
Heightened Def Con from 0.000373645 +to 0.000373645
Heightened Def Con from 0.000373645 +++++++++++++++to 0.000373645
Heightened Def Con from 0.000373645 ++++++++++++++++++to 0.000373645
Heightened Def Con from 0.000373645 to 0.000373645
Heightened Def Con from 0.000373645 ++to 0.000373645
Heightened Def Con from 0.000373645 to 0.000373645
Heightened Def Con from 0.000373645 to 0.000373645
Heightened Def Con from 0.000373645 to 0.000373645
Heightened Def Con from 0.000373645 to 0.000373645
Heightened Def Con from 0.000373645 ++to 0.000373645
Heightened Def Con from 0.000373645 +to 0.000373645
Heightened Def Con from 0.000373645 +to 0.000373645
Heightened Def Con from 0.000373645 to 0.000373645
Heightened Def Con from 0.000373645 to 0.000373645
Heightened Def Con from 0.000373645 +to 0.000373645
Heightened Def Con from 0.000373645 to 0.000373645
Heightened Def Con from 0.000373645 ++to 0.000373645
Heightened Def Con from 0.000373645 to 0.000373645
Heightened Def Con from 0.000373645 +to 0.000373645
Heightened Def Con from 0.000373645 to 0.000373645
Heightened Def Con from 0.000374408 to 0.000374408
Heightened Def Con from 0.000374408 +to 0.000374408
Heightened Def Con from 0.000374408 +to 0.000374408
Heightened Def Con from 0.000374408 to 0.000374408
Heightened Def Con from 0.000374408 +to 0.000374408
Heightened Def Con from 0.000375167 +to 0.000375167
Heightened Def Con from 0.000375167 to 0.000375167
Heightened Def Con from 0.000375167 to 0.000375167
Heightened Def Con from 0.000375167 +to 0.000375167
Heightened Def Con from 0.000375167 to 0.000375167
Heightened Def Con from 0.000375167 to 0.000375167
Heightened Def Con from 0.000375167 +to 0.000375167
Heightened Def Con from 0.000375167 +to 0.000375167
Heightened Def Con from 0.000375167 to 0.000375167
Heightened Def Con from 0.000375167 to 0.000375167
Heightened Def Con from 0.000375167 to 0.000375167
Heightened Def Con from 0.000375167 to 0.000375167
Heightened Def Con from 0.000375167 +to 0.000375167
Heightened Def Con from 0.000375167 +++to 0.000375167
Heightened Def Con from 0.000375167 to 0.000375167
Heightened Def Con from 0.000375167 to 0.000375167
Heightened Def Con from 0.000375323 to 0.000375325
Heightened Def Con from 0.000375925 to 0.000375925
Heightened Def Con from 0.000375925 +to 0.000375925
Heightened Def Con from 0.000375925 to 0.000375925
Heightened Def Con from 0.000376683 to 0.000376683
Heightened Def Con from 0.000376683 to 0.000376683
Heightened Def Con from 0.000376683 to 0.000376683
Heightened Def Con from 0.000376683 to 0.000376683
Heightened Def Con from 0.000376683 to 0.000376683
Heightened Def Con from 0.000376683 to 0.000376683
Heightened Def Con from 0.000376683 to 0.000376683
Heightened Def Con from 0.000376683 to 0.000376683
Heightened Def Con from 0.000376683 to 0.000376683
Heightened Def Con from 0.000376683 to 0.000376683
Heightened Def Con from 0.000376683 to 0.000376683
Heightened Def Con from 0.000376683 ++to 0.000376683
Heightened Def Con from 0.000376683 +to 0.000376683
Heightened Def Con from 0.000376683 to 0.000376683
Heightened Def Con from 0.000376683 +++to 0.000376683
Heightened Def Con from 0.000376683 +to 0.000376683
Heightened Def Con from 0.000376683 to 0.000376683
Heightened Def Con from 0.000376683 ++to 0.000376683
Heightened Def Con from 0.000376683 to 0.000376683
Heightened Def Con from 0.000376683 +to 0.000376683
Heightened Def Con from 0.000376683 +to 0.000376683
Heightened Def Con from 0.000376683 +to 0.000376683
Heightened Def Con from 0.000376683 to 0.000376683
Heightened Def Con from 0.000376683 to 0.000376683
Heightened Def Con from 0.000376683 to 0.000376683
Heightened Def Con from 0.000376683 +to 0.000376683
Heightened Def Con from 0.000376683 to 0.000376683
Heightened Def Con from 0.000376683 to 0.000376683
Heightened Def Con from 0.000376683 to 0.000376683
Heightened Def Con from 0.000376683 +++++++++++++++++to 0.000376683
Heightened Def Con from 0.000376683 +to 0.000376683
Heightened Def Con from 0.000376683 +to 0.000376683
Heightened Def Con from 0.000376683 ++to 0.000376683
Heightened Def Con from 0.000376683 to 0.000376683
Heightened Def Con from 0.000377595 to 0.000377596
Heightened Def Con from 0.000381352 to 0.000381353
Heightened Def Con from 0.000382684 to 0.000382685
Heightened Def Con from 0.000384329 to 0.000384332
Heightened Def Con from 0.000415444 to 0.000415446
Heightened Def Con from 0.000439088 to 0.000439089
Heightened Def Con from 0.000783393 to 0.000783403
Heightened Def Con from 0.00082626 to 0.00082627
Heightened Def Con from 0.000835646 to 0.000835656
Heightened Def Con from 0.000844529 to 0.000844539
Heightened Def Con from 0.000851443 to 0.000851453
Heightened Def Con from 0.000859367 to 0.000859377
Heightened Def Con from 0.000867785 to 0.000867795
Heightened Def Con from 0.000868282 to 0.000868292
Heightened Def Con from 0.000871749 to 0.000871759
Heightened Def Con from 0.000880671 to 0.000880681
Heightened Def Con from 0.000883151 to 0.000883161
Heightened Def Con from 0.000884644 to 0.000884654
Heightened Def Con from 0.000885141 to 0.000885151
Heightened Def Con from 0.000886137 to 0.000886147
Heightened Def Con from 0.000888614 to 0.000888624
Heightened Def Con from 0.000890107 to 0.000890108
Heightened Def Con from 0.000891599 to 0.000891609
Heightened Def Con from 0.000895575 to 0.000895585
Heightened Def Con from 0.00089906 to 0.00089907
Heightened Def Con from 0.000901054 to 0.000901064
Heightened Def Con from 0.000922978 to 0.000922978
Heightened Def Con from 0.000923476 to 0.000923486
Heightened Def Con from 0.000945941 to 0.000945951
Heightened Def Con from 0.000983398 to 0.000983398
Heightened Def Con from 0.000998411 to 0.000998421
Heightened Def Con from 0.00100745 to 0.00100746
Heightened Def Con from 0.00100946 to 0.00100946
Heightened Def Con from 0.00101751 to 0.00101751
Heightened Def Con from 0.00102053 to 0.00102054
Heightened Def Con from 0.00102863 to 0.00102864
Heightened Def Con from 0.00105458 to 0.00105459
Heightened Def Con from 0.00106892 to 0.00106893
Heightened Def Con from 0.00106995 to 0.00106996
Heightened Def Con from 0.00107457 to 0.00107458
Heightened Def Con from 0.00107816 to 0.00107817
Heightened Def Con from 0.00109462 to 0.00109463
Heightened Def Con from 0.00109875 to 0.00109876
Heightened Def Con from 0.00110237 to 0.00110237
Heightened Def Con from 0.0011034 to 0.0011034
Heightened Def Con from 0.00110496 to 0.00110496
Heightened Def Con from 0.00110755 to 0.00110755
Heightened Def Con from 0.0011091 to 0.0011091
Heightened Def Con from 0.00111844 to 0.00111844
Heightened Def Con from 0.00112417 to 0.00112417
Heightened Def Con from 0.00113511 to 0.00113511
Heightened Def Con from 0.00117129 to 0.00117129
Heightened Def Con from 0.00118395 to 0.00118395
Heightened Def Con from 0.00120124 to 0.00120124
Heightened Def Con from 0.00120656 to 0.00120657
Heightened Def Con from 0.00121923 to 0.00121923
Heightened Def Con from 0.00122243 to 0.00122244
Heightened Def Con from 0.00123469 to 0.0012347
Heightened Def Con from 0.0012563 to 0.0012563
Heightened Def Con from 0.00125737 to 0.00125737
Heightened Def Con from 0.00125845 to 0.00125845
Heightened Def Con from 0.00127058 to 0.00127058
Heightened Def Con from 0.00128211 to 0.00128212
Heightened Def Con from 0.00129934 to 0.00129934
Heightened Def Con from 0.00130041 to 0.00130041
Heightened Def Con from 0.00130094 to 0.00130095
Heightened Def Con from 0.00130172 to 0.00130173
Heightened Def Con from 0.00133572 to 0.00133572
Heightened Def Con from 0.00135987 to 0.00135988
Heightened Def Con from 0.00138703 to 0.00138704
Heightened Def Con from 0.00143814 to 0.00143814
Heightened Def Con from 0.00143868 to 0.00143868
Heightened Def Con from 0.00143995 to 0.00143996
Heightened Def Con from 0.00175767 to 0.00175767
Heightened Def Con from 0.00175953 to 0.00175954
Heightened Def Con from 0.0017596 to 0.0017596
Heightened Def Con from 0.00192898 to 0.00192899
Heightened Def Con from 0.00193025 to 0.00193025
Heightened Def Con from 0.00209881 to 0.00209881
Heightened Def Con from 0.00209935 to 0.00209935
Heightened Def Con from 0.00210116 to 0.00210116
Heightened Def Con from 0.00244025 to 0.00244025
Heightened Def Con from 0.00244132 to 0.00244133
Heightened Def Con from 0.00278137 to 0.00278138
Heightened Def Con from 0.00278298 to 0.00278298
Heightened Def Con from 0.00278431 to 0.00278431
Heightened Def Con from 0.00295274 to 0.00295274
Heightened Def Con from 0.00295381 to 0.00295383
Heightened Def Con from 0.00295514 to 0.00295514
Heightened Def Con from 0.00312589 to 0.00312589
Heightened Def Con from 0.00312595 to 0.00312595
Heightened Def Con from 0.00329609 to 0.0032961
Heightened Def Con from 0.00329687 to 0.00329687
Heightened Def Con from 0.00329693 to 0.00329694
Heightened Def Con from 0.0034675 to 0.00346751
Heightened Def Con from 0.00363836 to 0.00363837
Heightened Def Con from 0.00363849 to 0.00363849
Heightened Def Con from 0.00380936 to 0.00380936
Heightened Def Con from 0.00398015 to 0.00398015
Heightened Def Con from 0.00398021 to 0.00398021
Heightened Def Con from 0.00398043 to 0.00398044
Heightened Def Con from 0.00414857 to 0.00414857
Heightened Def Con from 0.00414965 to 0.00414965
Heightened Def Con from 0.00415091 to 0.00415091
Heightened Def Con from 0.00431946 to 0.00431947
Heightened Def Con from 0.00466352 to 0.00466352
Heightened Def Con from 0.00483311 to 0.00483311
Heightened Def Con from 0.00500142 to 0.00500142
Heightened Def Con from 0.00500197 to 0.00500197
Heightened Def Con from 0.00500286 to 0.00500286
Heightened Def Con from 0.00500556 to 0.00500556
Heightened Def Con from 0.00500676 to 0.00500676
Heightened Def Con from 0.0050147 to 0.00501471
Heightened Def Con from 0.00501559 to 0.00501559
Heightened Def Con from 0.00501578 to 0.00501578
Heightened Def Con from 0.00501632 to 0.00501632
Heightened Def Con from 0.00501721 to 0.00501721
Heightened Def Con from 0.0050174 to 0.00501741
Heightened Def Con from 0.00501794 to 0.00501794
Heightened Def Con from 0.00501981 to 0.00501981
Heightened Def Con from 0.00501987 to 0.00501987
Heightened Def Con from 0.00502004 to 0.00502004
Heightened Def Con from 0.0050279 to 0.0050279
Heightened Def Con from 0.00502843 to 0.00502843
Heightened Def Con from 0.00502862 to 0.00502863
Heightened Def Con from 0.00502897 to 0.00502897
Heightened Def Con from 0.00502916 to 0.00502917
Heightened Def Con from 0.00503132 to 0.00503132
Heightened Def Con from 0.00503187 to 0.00503188
Heightened Def Con from 0.00503276 to 0.00503276
Heightened Def Con from 0.00503354 to 0.00503354
Heightened Def Con from 0.00504099 to 0.00504099
Heightened Def Con from 0.00504171 to 0.00504171
Heightened Def Con from 0.0050426 to 0.0050426
Heightened Def Con from 0.00504441 to 0.00504441
Heightened Def Con from 0.00504476 to 0.00504476
Heightened Def Con from 0.0050551 to 0.0050551
Heightened Def Con from 0.00505618 to 0.00505618
Heightened Def Con from 0.00505672 to 0.00505673
Heightened Def Con from 0.00505707 to 0.00505707
Heightened Def Con from 0.00505815 to 0.00505815
Heightened Def Con from 0.00505868 to 0.00505868
Heightened Def Con from 0.00505935 to 0.00505935
Heightened Def Con from 0.00506791 to 0.00506791
Heightened Def Con from 0.0050708 to 0.00507081
Heightened Def Con from 0.00507213 to 0.00507213
Heightened Def Con from 0.00507259 to 0.00507259
Heightened Def Con from 0.00508071 to 0.00508071
Heightened Def Con from 0.00508287 to 0.00508288
Heightened Def Con from 0.00508376 to 0.00508376
Heightened Def Con from 0.00508449 to 0.00508449
Heightened Def Con from 0.00508449 to 0.00508449
Heightened Def Con from 0.00508527 to 0.00508527
Heightened Def Con from 0.005094 to 0.00509401
Heightened Def Con from 0.00509725 to 0.00509725
Heightened Def Con from 0.0050988 to 0.0050988
Heightened Def Con from 0.00509945 to 0.00509946
Heightened Def Con from 0.00510687 to 0.00510687
Heightened Def Con from 0.00510776 to 0.00510776
Heightened Def Con from 0.00510904 to 0.00510905
Heightened Def Con from 0.00511156 to 0.00511156
Heightened Def Con from 0.00511199 to 0.00511199
Heightened Def Con from 0.00511222 to 0.00511222
Heightened Def Con from 0.0051204 to 0.0051204
Heightened Def Con from 0.00512148 to 0.00512149
Heightened Def Con from 0.00512256 to 0.00512256
Heightened Def Con from 0.00512365 to 0.00512365
Heightened Def Con from 0.00512509 to 0.00512509
Heightened Def Con from 0.00512552 to 0.00512552
Heightened Def Con from 0.00512552 to 0.00512553
Heightened Def Con from 0.00512575 to 0.00512576
Heightened Def Con from 0.00513511 to 0.00513512
Heightened Def Con from 0.00513762 to 0.00513762
Heightened Def Con from 0.00513943 to 0.00513943
Heightened Def Con from 0.00514808 to 0.00514809
Heightened Def Con from 0.00589721 to 0.00589721
Heightened Def Con from 0.00590069 to 0.00590069
Heightened Def Con from 0.00608855 to 0.00608856
Heightened Def Con from 0.00609017 to 0.00609017
Heightened Def Con from 0.0060915 to 0.0060915
Heightened Def Con from 0.00644279 to 0.0064428
Heightened Def Con from 0.00644332 to 0.00644332
Heightened Def Con from 0.00644386 to 0.00644386
Heightened Def Con from 0.0064444 to 0.0064444
Heightened Def Con from 0.00644573 to 0.00644573
Heightened Def Con from 0.00661597 to 0.00661597
Heightened Def Con from 0.00712641 to 0.00712642
Heightened Def Con from 0.00712929 to 0.00712929
Heightened Def Con from 0.00747062 to 0.00747063
Heightened Def Con from 0.00763873 to 0.00763873
Heightened Def Con from 0.00764113 to 0.00764114
Heightened Def Con from 0.00780952 to 0.00780952
Heightened Def Con from 0.0078121 to 0.00781211
Heightened Def Con from 0.0079814 to 0.00798141
Heightened Def Con from 0.00798273 to 0.00798273
Heightened Def Con from 0.00798279 to 0.00798279
Heightened Def Con from 0.0084931 to 0.0084931
Heightened Def Con from 0.0084955 to 0.0084955
Heightened Def Con from 0.00866642 to 0.00866642
Heightened Def Con from 0.0088366 to 0.0088366
Heightened Def Con from 0.00900538 to 0.00900538
Heightened Def Con from 0.00900832 to 0.00900832
Heightened Def Con from 0.00934991 to 0.00934991
Heightened Def Con from 0.00952088 to 0.00952088
Heightened Def Con from 0.00952094 to 0.00952095
Heightened Def Con from 0.00968988 to 0.00968989
Heightened Def Con from 0.00969167 to 0.00969168
Heightened Def Con from 0.00986016 to 0.00986016
Heightened Def Con from 0.00986256 to 0.00986256
Heightened Def Con from 0.00986263 to 0.00986263
Heightened Def Con from 0.0102029 to 0.0102029
Heightened Def Con from 0.0102042 to 0.0102042
Heightened Def Con from 0.0105443 to 0.0105443
Heightened Def Con from 0.0105457 to 0.0105457
Heightened Def Con from 0.0107145 to 0.0107145
Heightened Def Con from 0.0107163 to 0.0107163
Heightened Def Con from 0.0108859 to 0.0108859
Heightened Def Con from 0.0108872 to 0.0108872
Heightened Def Con from 0.0112276 to 0.0112276
Heightened Def Con from 0.0112289 to 0.0112289
Heightened Def Con from 0.0113978 to 0.0113978
Heightened Def Con from 0.0113997 to 0.0113997
Heightened Def Con from 0.0115706 to 0.0115706
Heightened Def Con from 0.0117412 to 0.0117412
Heightened Def Con from 0.0120825 to 0.0120825
Heightened Def Con from 0.0120834 to 0.0120834
Heightened Def Con from 0.0122513 to 0.0122513
Heightened Def Con from 0.0122524 to 0.0122524
Heightened Def Con from 0.0124239 to 0.0124239
Heightened Def Con from 0.0125916 to 0.0125916
Heightened Def Con from 0.0125927 to 0.0125927
Heightened Def Con from 0.0127624 to 0.0127624
Heightened Def Con from 0.0127635 to 0.0127635
Heightened Def Con from 0.012764 to 0.012764
Heightened Def Con from 0.0131042 to 0.0131042
Heightened Def Con from 0.0131052 to 0.0131052
Heightened Def Con from 0.0131071 to 0.0131071
Heightened Def Con from 0.0132756 to 0.0132756
Heightened Def Con from 0.0134465 to 0.0134465
Heightened Def Con from 0.0134476 to 0.0134476
Heightened Def Con from 0.0136193 to 0.0136193
Heightened Def Con from 0.0137881 to 0.0137881
Heightened Def Con from 0.0139588 to 0.0139588
Heightened Def Con from 0.0141297 to 0.0141297
Heightened Def Con from 0.0141316 to 0.0141316
Heightened Def Con from 0.0141324 to 0.0141324
Heightened Def Con from 0.0143007 to 0.0143007
Heightened Def Con from 0.0144732 to 0.0144732
Heightened Def Con from 0.0146422 to 0.0146422
Heightened Def Con from 0.0148131 to 0.0148131
Heightened Def Con from 0.0148142 to 0.0148142
Heightened Def Con from 0.0149851 to 0.0149851
Heightened Def Con from 0.0151548 to 0.0151548
Heightened Def Con from 0.0153257 to 0.0153257
Heightened Def Con from 0.0154964 to 0.0154964
Heightened Def Con from 0.0156677 to 0.0156677
Heightened Def Con from 0.0156682 to 0.0156682
Heightened Def Con from 0.0156692 to 0.0156692
Heightened Def Con from 0.0158379 to 0.0158379
Heightened Def Con from 0.0160088 to 0.0160088
Heightened Def Con from 0.0160094 to 0.0160094
Heightened Def Con from 0.0161795 to 0.0161795
Heightened Def Con from 0.0161814 to 0.0161814
Heightened Def Con from 0.0161814 to 0.0161814
Heightened Def Con from 0.0163523 to 0.0163523
Heightened Def Con from 0.0165214 to 0.0165214
Heightened Def Con from 0.0166934 to 0.0166934
Heightened Def Con from 0.0168631 to 0.0168631
Heightened Def Con from 0.016865 to 0.016865
Heightened Def Con from 0.016865 to 0.016865
Heightened Def Con from 0.0170335 to 0.0170335
Heightened Def Con from 0.0170346 to 0.0170346
Heightened Def Con from 0.0172047 to 0.0172047
Heightened Def Con from 0.0172066 to 0.0172066
Heightened Def Con from 0.0173744 to 0.0173744
Heightened Def Con from 0.0173749 to 0.0173749
Heightened Def Con from 0.0173765 to 0.0173765
Heightened Def Con from 0.0175463 to 0.0175463
Heightened Def Con from 0.0175481 to 0.0175481
Heightened Def Con from 0.0178878 to 0.0178878
Heightened Def Con from 0.0178896 to 0.0178896
Heightened Def Con from 0.0178897 to 0.0178897
Heightened Def Con from 0.0180584 to 0.0180584
Heightened Def Con from 0.0180595 to 0.0180595
Heightened Def Con from 0.0180603 to 0.0180603
Heightened Def Con from 0.0182294 to 0.0182294
Heightened Def Con from 0.0184 to 0.0184
Heightened Def Con from 0.0185707 to 0.0185707
Heightened Def Con from 0.0189122 to 0.0189122
Heightened Def Con from 0.0189141 to 0.0189141
Heightened Def Con from 0.019082 to 0.019082
Heightened Def Con from 0.019254 to 0.019254
Heightened Def Con from 0.0194246 to 0.0194246
Heightened Def Con from 0.0195956 to 0.0195956
Heightened Def Con from 0.0195966 to 0.0195966
Heightened Def Con from 0.0197665 to 0.0197665
Heightened Def Con from 0.0199372 to 0.0199372
Heightened Def Con from 0.020108 to 0.020108
Heightened Def Con from 0.0201098 to 0.0201098
Heightened Def Con from 0.0202787 to 0.0202787
Heightened Def Con from 0.0202806 to 0.0202806
Heightened Def Con from 0.0202806 to 0.0202806
Heightened Def Con from 0.0204496 to 0.0204496
Heightened Def Con from 0.0204507 to 0.0204507
Heightened Def Con from 0.0206206 to 0.0206206
Heightened Def Con from 0.0206216 to 0.0206216
Heightened Def Con from 0.0207916 to 0.0207916
Heightened Def Con from 0.0209625 to 0.0209625
Heightened Def Con from 0.020963 to 0.020963
Heightened Def Con from 0.0209643 to 0.0209643
Heightened Def Con from 0.0211332 to 0.0211332
Heightened Def Con from 0.0211351 to 0.0211351
Heightened Def Con from 0.0213042 to 0.0213042
Heightened Def Con from 0.021475 to 0.021475
Heightened Def Con from 0.0214769 to 0.0214769
Heightened Def Con from 0.0216459 to 0.0216459
Heightened Def Con from 0.0218166 to 0.0218166
Heightened Def Con from 0.0219865 to 0.0219865
Heightened Def Con from 0.0221572 to 0.0221572
Heightened Def Con from 0.02216 to 0.02216
Heightened Def Con from 0.022329 to 0.022329
Heightened Def Con from 0.0224998 to 0.0224998
Heightened Def Con from 0.0225009 to 0.0225009
Heightened Def Con from 0.0226706 to 0.0226706
Heightened Def Con from 0.0228416 to 0.0228416
Heightened Def Con from 0.0228427 to 0.0228427
Heightened Def Con from 0.0228437 to 0.0228437
Heightened Def Con from 0.0230143 to 0.0230143
Heightened Def Con from 0.0231833 to 0.0231833
Heightened Def Con from 0.0231839 to 0.0231839
Heightened Def Con from 0.023354 to 0.023354
Heightened Def Con from 0.0235248 to 0.0235248
Heightened Def Con from 0.0235267 to 0.0235267
Heightened Def Con from 0.0235268 to 0.0235268
Heightened Def Con from 0.0236955 to 0.0236955
Heightened Def Con from 0.0238664 to 0.0238664
Heightened Def Con from 0.0240373 to 0.0240373
Heightened Def Con from 0.0240383 to 0.0240383
Heightened Def Con from 0.0242071 to 0.0242071
Heightened Def Con from 0.0242093 to 0.0242093
Heightened Def Con from 0.02421 to 0.02421
Heightened Def Con from 0.0242101 to 0.0242101
Heightened Def Con from 0.024379 to 0.024379
Heightened Def Con from 0.0243795 to 0.0243795
Heightened Def Con from 0.0243808 to 0.0243808
Heightened Def Con from 0.0245499 to 0.0245499
Heightened Def Con from 0.0247207 to 0.0247207
Heightened Def Con from 0.0248916 to 0.0248916
Heightened Def Con from 0.0248927 to 0.0248927
Heightened Def Con from 0.0250625 to 0.0250625
Heightened Def Con from 0.0250644 to 0.0250644
Heightened Def Con from 0.0252334 to 0.0252334
Heightened Def Con from 0.0254042 to 0.0254042
Heightened Def Con from 0.025746 to 0.025746
Heightened Def Con from 0.0260874 to 0.0260874
Heightened Def Con from 0.0262582 to 0.0262582
Heightened Def Con from 0.0264289 to 0.0264289
Heightened Def Con from 0.0265999 to 0.0265999
Heightened Def Con from 0.0269417 to 0.0269417
Heightened Def Con from 0.0271123 to 0.0271123
Heightened Def Con from 0.0271134 to 0.0271134
Heightened Def Con from 0.0272832 to 0.0272832
Heightened Def Con from 0.0274539 to 0.0274539
Heightened Def Con from 0.0276246 to 0.0276246
Heightened Def Con from 0.0276267 to 0.0276267
Heightened Def Con from 0.0277955 to 0.0277955
Heightened Def Con from 0.027968 to 0.027968
Heightened Def Con from 0.0281369 to 0.0281369
Heightened Def Con from 0.0283076 to 0.0283076
Heightened Def Con from 0.0284785 to 0.0284785
Heightened Def Con from 0.0286492 to 0.0286492
Heightened Def Con from 0.028651 to 0.028651
Heightened Def Con from 0.0288187 to 0.0288187
Heightened Def Con from 0.0288193 to 0.0288193
Heightened Def Con from 0.0289907 to 0.0289907
Heightened Def Con from 0.0293322 to 0.0293322
Heightened Def Con from 0.0293333 to 0.0293333
Heightened Def Con from 0.0293341 to 0.0293341
Heightened Def Con from 0.0295029 to 0.0295029
Heightened Def Con from 0.029504 to 0.029504
Heightened Def Con from 0.0296738 to 0.0296738
Heightened Def Con from 0.0296743 to 0.0296744
Heightened Def Con from 0.0300154 to 0.0300154
Heightened Def Con from 0.0300172 to 0.0300173
Heightened Def Con from 0.0300173 to 0.0300173
Heightened Def Con from 0.0301852 to 0.0301852
Heightened Def Con from 0.0301868 to 0.0301868
Heightened Def Con from 0.0303564 to 0.0303564
Heightened Def Con from 0.030357 to 0.030357
Heightened Def Con from 0.0303588 to 0.0303588
Heightened Def Con from 0.0305276 to 0.0305276
Heightened Def Con from 0.0306983 to 0.0306983
Heightened Def Con from 0.0308689 to 0.0308689
Heightened Def Con from 0.0310397 to 0.0310397
Heightened Def Con from 0.0312104 to 0.0312104
Heightened Def Con from 0.0313807 to 0.0313808
Heightened Def Con from 0.0313831 to 0.0313831
Heightened Def Con from 0.0315522 to 0.0315522
Heightened Def Con from 0.031723 to 0.031723
Heightened Def Con from 0.0317248 to 0.0317248
Heightened Def Con from 0.0320665 to 0.0320665
Heightened Def Con from 0.0322355 to 0.0322355
Heightened Def Con from 0.0324062 to 0.0324062
Heightened Def Con from 0.0324081 to 0.0324081
Heightened Def Con from 0.0324082 to 0.0324082
Heightened Def Con from 0.0324084 to 0.0324084
Heightened Def Con from 0.0325771 to 0.0325771
Heightened Def Con from 0.0327478 to 0.0327478
Heightened Def Con from 0.0329181 to 0.0329181
Heightened Def Con from 0.03326 to 0.03326
Heightened Def Con from 0.0332621 to 0.0332621
Heightened Def Con from 0.0334309 to 0.0334309
Heightened Def Con from 0.0336016 to 0.0336016
Heightened Def Con from 0.0337722 to 0.0337722
Heightened Def Con from 0.0337733 to 0.0337733
Heightened Def Con from 0.0339431 to 0.0339431
Heightened Def Con from 0.0339437 to 0.0339437
Heightened Def Con from 0.033945 to 0.033945
Heightened Def Con from 0.0339451 to 0.0339451
Heightened Def Con from 0.0341141 to 0.0341141
Heightened Def Con from 0.0341151 to 0.0341151
Heightened Def Con from 0.0341159 to 0.0341159
Heightened Def Con from 0.034116 to 0.034116
Heightened Def Con from 0.0342849 to 0.0342849
Heightened Def Con from 0.0344556 to 0.0344556
Heightened Def Con from 0.0344575 to 0.0344575
Heightened Def Con from 0.0346286 to 0.0346286
Heightened Def Con from 0.0347973 to 0.0347973
Heightened Def Con from 0.0347978 to 0.0347978
Heightened Def Con from 0.0347991 to 0.0347991
Heightened Def Con from 0.034968 to 0.034968
Heightened Def Con from 0.0349699 to 0.0349699
Heightened Def Con from 0.0351383 to 0.0351384
Heightened Def Con from 0.0353087 to 0.0353087
Heightened Def Con from 0.0354804 to 0.0354804
Heightened Def Con from 0.0356512 to 0.0356512
Heightened Def Con from 0.035653 to 0.035653
Heightened Def Con from 0.0358221 to 0.0358221
Heightened Def Con from 0.0358239 to 0.0358239
Heightened Def Con from 0.0359928 to 0.0359928
Heightened Def Con from 0.0361635 to 0.0361635
Heightened Def Con from 0.0361654 to 0.0361654
Heightened Def Con from 0.0361654 to 0.0361654
Heightened Def Con from 0.0363353 to 0.0363353
Heightened Def Con from 0.0365051 to 0.0365051
Heightened Def Con from 0.0365056 to 0.0365056
Heightened Def Con from 0.0365069 to 0.0365069
Heightened Def Con from 0.036507 to 0.036507
Heightened Def Con from 0.0366758 to 0.0366758
Heightened Def Con from 0.0368467 to 0.0368467
Heightened Def Con from 0.0370195 to 0.0370195
Heightened Def Con from 0.0371885 to 0.0371885
Heightened Def Con from 0.0371903 to 0.0371903
Heightened Def Con from 0.0373593 to 0.0373593
Heightened Def Con from 0.0375306 to 0.0375306
Heightened Def Con from 0.037703 to 0.037703
Heightened Def Con from 0.0378715 to 0.0378715
Heightened Def Con from 0.0380424 to 0.0380424
Heightened Def Con from 0.0380435 to 0.0380435
Heightened Def Con from 0.0380443 to 0.0380443
Heightened Def Con from 0.0382133 to 0.0382133
Heightened Def Con from 0.0383829 to 0.0383829
Heightened Def Con from 0.0383851 to 0.0383851
Heightened Def Con from 0.0383859 to 0.0383859
Heightened Def Con from 0.038556 to 0.038556
Heightened Def Con from 0.0387253 to 0.0387253
Heightened Def Con from 0.0387258 to 0.0387258
Heightened Def Con from 0.0388964 to 0.0388964
Heightened Def Con from 0.0390671 to 0.0390671
Heightened Def Con from 0.0394087 to 0.0394087
Heightened Def Con from 0.0395794 to 0.0395794
Heightened Def Con from 0.0399201 to 0.0399201
Heightened Def Con from 0.0399217 to 0.0399217
Heightened Def Con from 0.0399233 to 0.0399233
Heightened Def Con from 0.0400909 to 0.0400909
Heightened Def Con from 0.0400915 to 0.0400915
Heightened Def Con from 0.0400925 to 0.0400925
Heightened Def Con from 0.0402629 to 0.0402629
Heightened Def Con from 0.0402639 to 0.0402639
Heightened Def Con from 0.0406034 to 0.0406034
Heightened Def Con from 0.0406063 to 0.0406063
Heightened Def Con from 0.0406064 to 0.0406064
Heightened Def Con from 0.0407753 to 0.0407753
Heightened Def Con from 0.0409452 to 0.0409452
Heightened Def Con from 0.0409484 to 0.0409484
Heightened Def Con from 0.0411171 to 0.0411171
Heightened Def Con from 0.0411176 to 0.0411176
Heightened Def Con from 0.0411189 to 0.0411189
Heightened Def Con from 0.0412879 to 0.0412879
Heightened Def Con from 0.0414585 to 0.0414585
Heightened Def Con from 0.0416295 to 0.0416295
Heightened Def Con from 0.0418001 to 0.0418001
Heightened Def Con from 0.041971 to 0.041971
Heightened Def Con from 0.0421416 to 0.0421416
Heightened Def Con from 0.0421435 to 0.0421435
Heightened Def Con from 0.0423129 to 0.0423129
Heightened Def Con from 0.0424832 to 0.0424832
Heightened Def Con from 0.0426541 to 0.0426541
Heightened Def Con from 0.042656 to 0.042656
Heightened Def Con from 0.042825 to 0.042825
Heightened Def Con from 0.0429957 to 0.0429957
Heightened Def Con from 0.0429968 to 0.0429968
Heightened Def Con from 0.0431666 to 0.0431666
Heightened Def Con from 0.0433373 to 0.0433373
Heightened Def Con from 0.043508 to 0.043508
Heightened Def Con from 0.0436787 to 0.0436787
Heightened Def Con from 0.0436792 to 0.0436792
Heightened Def Con from 0.0436805 to 0.0436805
Heightened Def Con from 0.0438496 to 0.0438496
Heightened Def Con from 0.0440205 to 0.0440205
Heightened Def Con from 0.0441913 to 0.0441913
Heightened Def Con from 0.0443622 to 0.0443622
Heightened Def Con from 0.0445331 to 0.0445331
Heightened Def Con from 0.0445342 to 0.0445342
Heightened Def Con from 0.0447058 to 0.0447058
Heightened Def Con from 0.0448747 to 0.0448747
Heightened Def Con from 0.0450443 to 0.0450443
Heightened Def Con from 0.045216 to 0.045216
Heightened Def Con from 0.045387 to 0.045387
Heightened Def Con from 0.0453881 to 0.0453881
Heightened Def Con from 0.0455579 to 0.0455579
Heightened Def Con from 0.0457287 to 0.0457287
Heightened Def Con from 0.0457305 to 0.0457305
Heightened Def Con from 0.0458995 to 0.0458995
Heightened Def Con from 0.0459013 to 0.0459013
Heightened Def Con from 0.0460702 to 0.0460702
Heightened Def Con from 0.046072 to 0.046072
Heightened Def Con from 0.0462408 to 0.0462408
Heightened Def Con from 0.0464117 to 0.0464117
Heightened Def Con from 0.0464135 to 0.0464135
Heightened Def Con from 0.046753 to 0.046753
Heightened Def Con from 0.0469237 to 0.0469237
Heightened Def Con from 0.0470933 to 0.0470933
Heightened Def Con from 0.0470944 to 0.0470944
Heightened Def Con from 0.0472651 to 0.0472651
Heightened Def Con from 0.0474358 to 0.0474358
Heightened Def Con from 0.0474376 to 0.0474376
Heightened Def Con from 0.0477775 to 0.0477775
Heightened Def Con from 0.0477785 to 0.0477785
Heightened Def Con from 0.0481192 to 0.0481192
Heightened Def Con from 0.0481203 to 0.0481203
Heightened Def Con from 0.0481211 to 0.0481211
Heightened Def Con from 0.0482901 to 0.0482901
Heightened Def Con from 0.0482906 to 0.0482906
Heightened Def Con from 0.0482919 to 0.0482919
Heightened Def Con from 0.0484607 to 0.0484607
Heightened Def Con from 0.0486314 to 0.0486314
Heightened Def Con from 0.0486333 to 0.0486333
Heightened Def Con from 0.0488023 to 0.0488023
Heightened Def Con from 0.0488034 to 0.0488034
Heightened Def Con from 0.0488042 to 0.0488042
Heightened Def Con from 0.0488043 to 0.0488043
Heightened Def Con from 0.0489732 to 0.0489732
Heightened Def Con from 0.0491439 to 0.0491439
Heightened Def Con from 0.0491457 to 0.0491457
Heightened Def Con from 0.0493147 to 0.0493147
Heightened Def Con from 0.0494854 to 0.0494854
Heightened Def Con from 0.0496561 to 0.0496561
Heightened Def Con from 0.0498269 to 0.0498269
Heightened Def Con from 0.0499978 to 0.0499978
Heightened Def Con from 0.0501685 to 0.0501685
Heightened Def Con from 0.0501696 to 0.0501696
Heightened Def Con from 0.0503394 to 0.0503394
Heightened Def Con from 0.0505101 to 0.0505101
Heightened Def Con from 0.050512 to 0.050512
Heightened Def Con from 0.0505121 to 0.0505121
Heightened Def Con from 0.0506808 to 0.0506808
Heightened Def Con from 0.0508517 to 0.0508517
Heightened Def Con from 0.0510226 to 0.0510226
Heightened Def Con from 0.0511954 to 0.0511954
Heightened Def Con from 0.0513644 to 0.0513644
Heightened Def Con from 0.0515353 to 0.0515353
Heightened Def Con from 0.0515371 to 0.0515371
Heightened Def Con from 0.0517062 to 0.0517062
Heightened Def Con from 0.0518768 to 0.0518768
Heightened Def Con from 0.0518774 to 0.0518774
Heightened Def Con from 0.0518787 to 0.0518787
Heightened Def Con from 0.0520475 to 0.0520475
Heightened Def Con from 0.0522195 to 0.0522195
Heightened Def Con from 0.0522203 to 0.0522203
Heightened Def Con from 0.0525601 to 0.0525601
Heightened Def Con from 0.0525622 to 0.0525622
Heightened Def Con from 0.0527308 to 0.0527308
Heightened Def Con from 0.0530723 to 0.0530723
Heightened Def Con from 0.0530742 to 0.0530742
Heightened Def Con from 0.0532419 to 0.0532419
Heightened Def Con from 0.0532425 to 0.0532425
Heightened Def Con from 0.0534137 to 0.0534137
Heightened Def Con from 0.0535844 to 0.0535844
Heightened Def Con from 0.053755 to 0.053755
Heightened Def Con from 0.0539258 to 0.0539258
Heightened Def Con from 0.0540966 to 0.0540966
Heightened Def Con from 0.0540977 to 0.0540977
Heightened Def Con from 0.0540985 to 0.0540985
Heightened Def Con from 0.054268 to 0.054268
Heightened Def Con from 0.0544381 to 0.0544381
Heightened Def Con from 0.0544391 to 0.0544391
Heightened Def Con from 0.0546089 to 0.0546089
Heightened Def Con from 0.0547796 to 0.0547796
Heightened Def Con from 0.0547814 to 0.0547814
Heightened Def Con from 0.0549503 to 0.0549503
Heightened Def Con from 0.0550022 to 0.0550022
Heightened Def Con from 0.0550025 to 0.0550025
Heightened Def Con from 0.0550036 to 0.0550036
Heightened Def Con from 0.0550054 to 0.0550054
Heightened Def Con from 0.0550072 to 0.0550072
Heightened Def Con from 0.0550072 to 0.0550073
Heightened Def Con from 0.0550073 to 0.0550073
Heightened Def Con from 0.0550075 to 0.0550075
Heightened Def Con from 0.0550076 to 0.0550076
Heightened Def Con from 0.0550149 to 0.0550149
Heightened Def Con from 0.0550149 to 0.0550149
Heightened Def Con from 0.0550165 to 0.0550165
Heightened Def Con from 0.0550176 to 0.0550176
Heightened Def Con from 0.0550181 to 0.0550181
Heightened Def Con from 0.0550277 to 0.0550277
Heightened Def Con from 0.0550283 to 0.0550283
Heightened Def Con from 0.0550286 to 0.0550286
Heightened Def Con from 0.0550304 to 0.0550304
Heightened Def Con from 0.0550315 to 0.0550315
Heightened Def Con from 0.0550315 to 0.0550315
Heightened Def Con from 0.0550328 to 0.0550328
Heightened Def Con from 0.0550333 to 0.0550333
Heightened Def Con from 0.0550416 to 0.0550416
Heightened Def Con from 0.0550423 to 0.0550424
Heightened Def Con from 0.0550461 to 0.0550461
Heightened Def Con from 0.0550537 to 0.0550537
Heightened Def Con from 0.0550577 to 0.0550577
Heightened Def Con from 0.0550592 to 0.0550592
Heightened Def Con from 0.0550686 to 0.0550686
Heightened Def Con from 0.0550693 to 0.0550693
Heightened Def Con from 0.0550704 to 0.0550704
Heightened Def Con from 0.0550709 +to 0.0550709
Heightened Def Con from 0.0550713 to 0.0550713
Heightened Def Con from 0.0550722 to 0.0550722
Heightened Def Con from 0.0550725 to 0.0550725
Heightened Def Con from 0.0550727 to 0.0550727
Heightened Def Con from 0.0550731 to 0.0550731
Heightened Def Con from 0.0550804 to 0.0550804
Heightened Def Con from 0.0550809 to 0.0550809
Heightened Def Con from 0.0550822 to 0.0550822
Heightened Def Con from 0.0550831 to 0.0550831
Heightened Def Con from 0.0550843 to 0.0550843
Heightened Def Con from 0.0550847 to 0.0550847
Heightened Def Con from 0.055086 to 0.055086
Heightened Def Con from 0.0550861 to 0.0550861
Heightened Def Con from 0.0550864 to 0.0550864
Heightened Def Con from 0.0550867 to 0.0550867
Heightened Def Con from 0.0550941 to 0.0550941
Heightened Def Con from 0.0550944 to 0.0550944
Heightened Def Con from 0.0550968 to 0.0550968
Heightened Def Con from 0.0550994 to 0.0550994
Heightened Def Con from 0.0551077 to 0.0551077
Heightened Def Con from 0.0551077 to 0.0551077
Heightened Def Con from 0.0551098 +to 0.0551098
Heightened Def Con from 0.0551115 to 0.0551115
Heightened Def Con from 0.0551128 to 0.0551128
Heightened Def Con from 0.0551217 to 0.0551217
Heightened Def Con from 0.0551225 to 0.0551225
Heightened Def Con from 0.0551252 to 0.0551252
Heightened Def Con from 0.0551265 to 0.0551265
Heightened Def Con from 0.0551265 to 0.0551265
Heightened Def Con from 0.0551267 to 0.0551267
Heightened Def Con from 0.0551357 to 0.0551357
Heightened Def Con from 0.0551373 to 0.0551373
Heightened Def Con from 0.0551403 to 0.0551403
Heightened Def Con from 0.0551403 to 0.0551403
Heightened Def Con from 0.0551404 to 0.0551404
Heightened Def Con from 0.0551405 to 0.0551405
Heightened Def Con from 0.0551408 to 0.0551408
Heightened Def Con from 0.055149 to 0.055149
Heightened Def Con from 0.055149 to 0.0551491
Heightened Def Con from 0.0551501 to 0.0551501
Heightened Def Con from 0.0559195 to 0.0559195
Heightened Def Con from 0.0559201 to 0.0559201
Heightened Def Con from 0.0559206 to 0.0559206
Heightened Def Con from 0.0559211 to 0.0559211
Heightened Def Con from 0.0562901 to 0.0562901
Heightened Def Con from 0.0564626 to 0.0564626
Heightened Def Con from 0.0566344 to 0.0566344
Heightened Def Con from 0.0566349 to 0.0566349
Heightened Def Con from 0.0568045 to 0.0568045
Heightened Def Con from 0.056805 to 0.056805
Heightened Def Con from 0.0569753 to 0.0569753
Heightened Def Con from 0.0571454 to 0.0571454
Heightened Def Con from 0.0571465 to 0.0571465
Heightened Def Con from 0.0573187 to 0.0573187
Heightened Def Con from 0.0576589 to 0.0576589
Heightened Def Con from 0.0576602 to 0.0576602
Heightened Def Con from 0.0578287 to 0.0578287
Heightened Def Con from 0.0579994 to 0.0579994
Heightened Def Con from 0.0581713 to 0.0581713
Heightened Def Con from 0.0583404 to 0.0583404
Heightened Def Con from 0.0585117 to 0.0585117
Heightened Def Con from 0.0586849 to 0.0586849
Heightened Def Con from 0.0588558 to 0.0588558
Heightened Def Con from 0.0588562 to 0.0588562
Heightened Def Con from 0.059196 to 0.059196
Heightened Def Con from 0.0591965 to 0.0591965
Heightened Def Con from 0.0591973 to 0.0591973
Heightened Def Con from 0.0593682 to 0.0593682
Heightened Def Con from 0.0595367 to 0.0595367
Heightened Def Con from 0.0595391 to 0.0595391
Heightened Def Con from 0.0602223 to 0.0602223
Heightened Def Con from 0.060391 to 0.060391
Heightened Def Con from 0.0605637 to 0.0605637
Heightened Def Con from 0.0607325 to 0.0607325
Heightened Def Con from 0.0609021 to 0.0609021
Heightened Def Con from 0.0609032 to 0.0609032
Heightened Def Con from 0.061072 to 0.061072
Heightened Def Con from 0.0610744 to 0.0610744
Heightened Def Con from 0.0610757 to 0.0610757
Heightened Def Con from 0.0614143 to 0.0614143
Heightened Def Con from 0.0614175 to 0.0614175
Heightened Def Con from 0.0617567 to 0.0617567
Heightened Def Con from 0.0617577 to 0.0617577
Heightened Def Con from 0.0620987 to 0.0620987
Heightened Def Con from 0.0621 to 0.0621
Heightened Def Con from 0.0622688 to 0.0622688
Heightened Def Con from 0.0624394 to 0.0624394
Heightened Def Con from 0.0627827 to 0.0627827
Heightened Def Con from 0.0631221 to 0.0631221
Heightened Def Con from 0.0632928 to 0.0632928
Heightened Def Con from 0.0636342 to 0.0636342
Heightened Def Con from 0.0636361 to 0.0636361
Heightened Def Con from 0.0638051 to 0.0638051
Heightened Def Con from 0.0639749 to 0.0639749
Heightened Def Con from 0.0639755 to 0.0639755
Heightened Def Con from 0.0641467 to 0.0641467
Heightened Def Con from 0.0644883 to 0.0644883
Heightened Def Con from 0.0646609 to 0.0646609
Heightened Def Con from 0.0648297 to 0.0648297
Heightened Def Con from 0.0648318 to 0.0648318
Heightened Def Con from 0.0649993 to 0.0649993
Heightened Def Con from 0.0650023 to 0.0650023
Heightened Def Con from 0.0651713 to 0.0651713
Heightened Def Con from 0.0653421 to 0.0653421
Heightened Def Con from 0.0655128 to 0.0655128
Heightened Def Con from 0.0655139 to 0.0655139
Heightened Def Con from 0.0656837 to 0.0656837
Heightened Def Con from 0.0656856 to 0.0656856
Heightened Def Con from 0.0658546 to 0.0658546
Heightened Def Con from 0.0658551 to 0.0658551
Heightened Def Con from 0.0660255 to 0.0660255
Heightened Def Con from 0.0660273 to 0.0660273
Heightened Def Con from 0.0661963 to 0.0661963
Heightened Def Con from 0.0663671 to 0.0663671
Heightened Def Con from 0.066369 to 0.066369
Heightened Def Con from 0.0663691 to 0.0663691
Heightened Def Con from 0.066538 to 0.066538
Heightened Def Con from 0.0665399 to 0.0665399
Heightened Def Con from 0.0667089 to 0.0667089
Heightened Def Con from 0.0670504 to 0.0670504
Heightened Def Con from 0.0672217 to 0.0672217
Heightened Def Con from 0.0673914 to 0.0673914
Heightened Def Con from 0.0677336 to 0.0677336
Heightened Def Con from 0.0679042 to 0.0679042
Heightened Def Con from 0.0679048 to 0.0679048
Heightened Def Con from 0.0680761 to 0.0680761
Heightened Def Con from 0.0682446 to 0.0682446
Heightened Def Con from 0.0684164 to 0.0684164
Heightened Def Con from 0.068587 to 0.068587
Heightened Def Con from 0.0685889 to 0.0685889
Heightened Def Con from 0.0685889 to 0.0685889
Heightened Def Con from 0.0685892 to 0.0685892
Heightened Def Con from 0.0687579 to 0.0687579
Heightened Def Con from 0.0687597 to 0.0687597
Heightened Def Con from 0.0689286 to 0.0689286
Heightened Def Con from 0.0689291 to 0.0689291
Heightened Def Con from 0.0690995 to 0.0690995
Heightened Def Con from 0.0691 to 0.0691
Heightened Def Con from 0.0692704 to 0.0692704
Heightened Def Con from 0.0692723 to 0.0692723
Heightened Def Con from 0.0694413 to 0.0694413
Heightened Def Con from 0.0697826 to 0.0697826
Heightened Def Con from 0.0697837 to 0.0697837
Heightened Def Con from 0.0699535 to 0.0699535
Heightened Def Con from 0.0699554 to 0.0699554
Heightened Def Con from 0.0699554 to 0.0699554
Heightened Def Con from 0.0702951 to 0.0702951
Heightened Def Con from 0.0702957 to 0.0702957
Heightened Def Con from 0.0704659 to 0.0704659
Heightened Def Con from 0.070467 to 0.070467
Heightened Def Con from 0.0706368 to 0.0706368
Heightened Def Con from 0.0706378 to 0.0706378
Heightened Def Con from 0.0708077 to 0.0708077
Heightened Def Con from 0.0709785 to 0.0709785
Heightened Def Con from 0.0709803 to 0.0709803
Heightened Def Con from 0.0711492 to 0.0711492
Heightened Def Con from 0.0711511 to 0.0711511
Heightened Def Con from 0.071322 to 0.071322
Heightened Def Con from 0.071491 to 0.071491
Heightened Def Con from 0.0716619 to 0.0716619
Heightened Def Con from 0.0716637 to 0.0716637
Heightened Def Con from 0.0718326 to 0.0718326
Heightened Def Con from 0.0720022 to 0.0720022
Heightened Def Con from 0.0720028 to 0.0720028
Heightened Def Con from 0.0721742 to 0.0721742
Heightened Def Con from 0.072176 to 0.072176
Heightened Def Con from 0.0725158 to 0.0725158
Heightened Def Con from 0.0725168 to 0.0725168
Heightened Def Con from 0.0726864 to 0.0726864
Heightened Def Con from 0.072859 to 0.072859
Heightened Def Con from 0.0730278 to 0.0730278
Heightened Def Con from 0.0730289 to 0.0730289
Heightened Def Con from 0.0731986 to 0.0731986
Heightened Def Con from 0.0733694 to 0.0733694
Heightened Def Con from 0.0735401 to 0.0735401
Heightened Def Con from 0.0735422 to 0.0735422
Heightened Def Con from 0.0737108 to 0.0737108
Heightened Def Con from 0.0737127 to 0.0737127
Heightened Def Con from 0.0738818 to 0.0738818
Heightened Def Con from 0.0740525 to 0.0740525
Heightened Def Con from 0.0740531 to 0.0740531
Heightened Def Con from 0.0740544 to 0.0740544
Heightened Def Con from 0.0742235 to 0.0742235
Heightened Def Con from 0.0743936 to 0.0743936
Heightened Def Con from 0.0743941 to 0.0743941
Heightened Def Con from 0.074396 to 0.074396
Heightened Def Con from 0.074908 to 0.074908
Heightened Def Con from 0.0750771 to 0.0750771
Heightened Def Con from 0.0752481 to 0.0752481
Heightened Def Con from 0.0752499 to 0.0752499
Heightened Def Con from 0.0754206 to 0.0754206
Heightened Def Con from 0.0757604 to 0.0757604
Heightened Def Con from 0.0757615 to 0.0757615
Heightened Def Con from 0.0757623 to 0.0757623
Heightened Def Con from 0.0759308 to 0.0759308
Heightened Def Con from 0.0761022 to 0.0761022
Heightened Def Con from 0.0761041 to 0.0761041
Heightened Def Con from 0.0762731 to 0.0762731
Heightened Def Con from 0.0764437 to 0.0764437
Heightened Def Con from 0.0766146 to 0.0766146
Heightened Def Con from 0.0766156 to 0.0766156
Heightened Def Con from 0.0767855 to 0.0767855
Heightened Def Con from 0.0767866 to 0.0767866
Heightened Def Con from 0.0769552 to 0.0769552
Heightened Def Con from 0.0769563 to 0.0769563
Heightened Def Con from 0.0769581 to 0.0769581
Heightened Def Con from 0.0771272 to 0.0771272
Heightened Def Con from 0.077298 to 0.077298
Heightened Def Con from 0.0772998 to 0.0772998
Heightened Def Con from 0.0774682 to 0.0774682
Heightened Def Con from 0.0774687 to 0.0774687
Heightened Def Con from 0.0776394 to 0.0776394
Heightened Def Con from 0.0779811 to 0.0779811
Heightened Def Con from 0.0783225 to 0.0783225
Heightened Def Con from 0.0783235 to 0.0783235
Heightened Def Con from 0.0783243 to 0.0783243
Heightened Def Con from 0.0784953 to 0.0784953
Heightened Def Con from 0.0786643 to 0.0786643
Heightened Def Con from 0.078835 to 0.078835
Heightened Def Con from 0.0790059 to 0.0790059
Heightened Def Con from 0.0793495 to 0.0793495
Heightened Def Con from 0.079689 to 0.079689
Heightened Def Con from 0.07986 to 0.07986
Heightened Def Con from 0.0800306 to 0.0800306
Heightened Def Con from 0.0800324 to 0.0800324
Heightened Def Con from 0.0802014 to 0.0802014
Heightened Def Con from 0.0803724 to 0.0803724
Heightened Def Con from 0.0803734 to 0.0803734
Heightened Def Con from 0.0805432 to 0.0805432
Heightened Def Con from 0.0807153 to 0.0807153
Heightened Def Con from 0.080885 to 0.080885
Heightened Def Con from 0.0808856 to 0.0808856
Heightened Def Con from 0.081056 to 0.081056
Heightened Def Con from 0.0812267 to 0.0812267
Heightened Def Con from 0.0812285 to 0.0812285
Heightened Def Con from 0.0815683 to 0.0815683
Heightened Def Con from 0.0819097 to 0.0819097
Heightened Def Con from 0.0820803 to 0.0820803
Heightened Def Con from 0.0820821 to 0.0820822
Heightened Def Con from 0.082251 to 0.082251
Heightened Def Con from 0.0822528 to 0.0822528
Heightened Def Con from 0.0824218 to 0.0824218
Heightened Def Con from 0.0825925 to 0.0825925
Heightened Def Con from 0.0825936 to 0.0825936
Heightened Def Con from 0.0825944 to 0.0825944
Heightened Def Con from 0.0827622 to 0.0827622
Heightened Def Con from 0.0827633 to 0.0827633
Heightened Def Con from 0.0827638 to 0.0827638
Heightened Def Con from 0.0831048 to 0.0831048
Heightened Def Con from 0.0832766 to 0.0832766
Heightened Def Con from 0.0834464 to 0.0834464
Heightened Def Con from 0.0834475 to 0.0834475
Heightened Def Con from 0.083788 to 0.083788
Heightened Def Con from 0.0839587 to 0.0839587
Heightened Def Con from 0.0841304 to 0.0841304
Heightened Def Con from 0.0844711 to 0.0844711
Heightened Def Con from 0.0844722 to 0.0844722
Heightened Def Con from 0.0844729 to 0.0844729
Heightened Def Con from 0.0846418 to 0.0846418
Heightened Def Con from 0.0848114 to 0.0848114
Heightened Def Con from 0.0848146 to 0.0848146
Heightened Def Con from 0.0849834 to 0.0849834
Heightened Def Con from 0.0849845 to 0.0849845
Heightened Def Con from 0.0851559 to 0.0851559
Heightened Def Con from 0.0853248 to 0.0853248
Heightened Def Con from 0.0856653 to 0.0856653
Heightened Def Con from 0.0856663 to 0.0856663
Heightened Def Con from 0.0856669 to 0.0856669
Heightened Def Con from 0.0860082 to 0.0860082
Heightened Def Con from 0.086178 to 0.086178
Heightened Def Con from 0.0863498 to 0.0863498
Heightened Def Con from 0.0865207 to 0.0865207
Heightened Def Con from 0.0866916 to 0.0866916
Heightened Def Con from 0.0868625 to 0.0868625
Heightened Def Con from 0.0868643 to 0.0868643
Heightened Def Con from 0.0872041 to 0.0872041
Heightened Def Con from 0.0872062 to 0.0872062
Heightened Def Con from 0.0873748 to 0.0873748
Heightened Def Con from 0.0873767 to 0.0873767
Heightened Def Con from 0.0875457 to 0.0875457
Heightened Def Con from 0.0875477 to 0.0875477
Heightened Def Con from 0.0878875 to 0.0878875
Heightened Def Con from 0.0878886 to 0.0878886
Heightened Def Con from 0.0880584 to 0.0880584
Heightened Def Con from 0.0882291 to 0.0882291
Heightened Def Con from 0.0884 to 0.0884
Heightened Def Con from 0.0885707 to 0.0885707
Heightened Def Con from 0.0887404 to 0.0887404
Heightened Def Con from 0.0889122 to 0.0889122
Heightened Def Con from 0.0890825 to 0.0890825
Heightened Def Con from 0.089083 to 0.089083
Heightened Def Con from 0.0890848 to 0.0890849
Heightened Def Con from 0.0892555 to 0.0892555
Heightened Def Con from 0.0894233 to 0.0894233
Heightened Def Con from 0.0894254 to 0.0894254
Heightened Def Con from 0.089597 to 0.089597
Heightened Def Con from 0.0895971 to 0.0895971
Heightened Def Con from 0.0897649 to 0.0897649
Heightened Def Con from 0.0897665 to 0.0897665
Heightened Def Con from 0.0899368 to 0.0899368
Heightened Def Con from 0.0899379 to 0.0899379
Heightened Def Con from 0.0899387 to 0.0899387
Heightened Def Con from 0.0901078 to 0.0901078
Heightened Def Con from 0.0902787 to 0.0902787
Heightened Def Con from 0.0902798 to 0.0902798
Heightened Def Con from 0.0902808 to 0.0902808
Heightened Def Con from 0.0904495 to 0.0904495
Heightened Def Con from 0.0904505 to 0.0904505
Heightened Def Con from 0.0907912 to 0.0907912
Heightened Def Con from 0.0911327 to 0.0911327
Heightened Def Con from 0.0911338 to 0.0911338
Heightened Def Con from 0.0913026 to 0.0913026
Heightened Def Con from 0.0913031 to 0.0913031
Heightened Def Con from 0.0913055 to 0.0913055
Heightened Def Con from 0.0914743 to 0.0914743
Heightened Def Con from 0.0914762 to 0.0914762
Heightened Def Con from 0.0914763 to 0.0914763
Heightened Def Con from 0.0916453 to 0.0916453
Heightened Def Con from 0.0918162 to 0.0918162
Heightened Def Con from 0.0919871 to 0.0919871
Heightened Def Con from 0.0919889 to 0.0919889
Heightened Def Con from 0.0921579 to 0.0921579
Heightened Def Con from 0.0921597 to 0.0921597
Heightened Def Con from 0.0923286 to 0.0923286
Heightened Def Con from 0.0923305 to 0.0923305
Heightened Def Con from 0.0924996 to 0.0924996
Heightened Def Con from 0.0926705 to 0.0926705
Heightened Def Con from 0.0926723 to 0.0926723
Heightened Def Con from 0.0928412 to 0.0928412
Heightened Def Con from 0.0930121 to 0.0930121
Heightened Def Con from 0.0931828 to 0.0931828
Heightened Def Con from 0.0931846 to 0.0931846
Heightened Def Con from 0.0933537 to 0.0933537
Heightened Def Con from 0.0935244 to 0.0935244
Heightened Def Con from 0.0935263 to 0.0935263
Heightened Def Con from 0.0935263 to 0.0935263
Heightened Def Con from 0.0936953 to 0.0936953
Heightened Def Con from 0.093866 to 0.093866
Heightened Def Con from 0.0938671 to 0.0938671
Heightened Def Con from 0.0940368 to 0.0940368
Heightened Def Con from 0.0942077 to 0.0942077
Heightened Def Con from 0.0943807 to 0.0943808
Heightened Def Con from 0.0945493 to 0.0945493
Heightened Def Con from 0.0945512 to 0.0945512
Heightened Def Con from 0.09472 to 0.09472
Heightened Def Con from 0.0947218 to 0.0947218
Heightened Def Con from 0.0948926 to 0.0948926
Heightened Def Con from 0.0950633 to 0.0950633
Heightened Def Con from 0.0950633 to 0.0950633
Heightened Def Con from 0.0952323 to 0.0952323
Heightened Def Con from 0.0954032 to 0.0954032
Heightened Def Con from 0.0955739 to 0.0955739
Heightened Def Con from 0.0955758 to 0.0955758
Heightened Def Con from 0.0957447 to 0.0957447
Heightened Def Con from 0.0957458 to 0.0957458
Heightened Def Con from 0.0959157 to 0.0959157
Heightened Def Con from 0.0960866 to 0.0960866
Heightened Def Con from 0.0962573 to 0.0962573
Heightened Def Con from 0.0962578 to 0.0962578
Heightened Def Con from 0.09643 to 0.09643
Heightened Def Con from 0.0965989 to 0.0965989
Heightened Def Con from 0.0969394 to 0.0969394
Heightened Def Con from 0.0969399 to 0.0969399
Heightened Def Con from 0.0971113 to 0.0971113
Heightened Def Con from 0.0971132 to 0.0971132
Heightened Def Con from 0.0972822 to 0.0972822
Heightened Def Con from 0.0974548 to 0.0974548
Heightened Def Con from 0.0976227 to 0.0976227
Heightened Def Con from 0.0979653 to 0.0979653
Heightened Def Con from 0.0979664 to 0.0979664
Heightened Def Con from 0.0979672 to 0.0979672
Heightened Def Con from 0.0981363 to 0.0981363
Heightened Def Con from 0.0981381 to 0.0981381
Heightened Def Con from 0.0981382 to 0.0981382
Heightened Def Con from 0.0983072 to 0.0983072
Heightened Def Con from 0.0984799 to 0.0984799
Heightened Def Con from 0.0986487 to 0.0986487
Heightened Def Con from 0.0986498 to 0.0986498
Heightened Def Con from 0.0988196 to 0.0988196
Heightened Def Con from 0.0989914 to 0.0989914
Heightened Def Con from 0.0991631 to 0.0991631
Heightened Def Con from 0.0991633 to 0.0991633
Heightened Def Con from 0.0993321 to 0.0993321
Heightened Def Con from 0.0996734 to 0.0996734
Heightened Def Con from 0.0996753 to 0.0996753
Heightened Def Con from 0.0998443 to 0.0998443

Date: Mon Jan 30 01:36:35 2017
Total elapsed time: 236.958 seconds.

tnom = 27
temp = 27
method = modified trap
totiter = 13930925
traniter = 13930511
tranpoints = 4397634
accept = 3191579
rejected = 1207270
matrix size = 58
fillins = 20
solver = Normal
Thread vector: 24.2/14.2[2] 5.1/3.3[2] 1.6/1.5[1] 0.2/0.7[1]  2592/500
Matrix Compiler1: 4.01 KB object code size  0.8/0.4/[0.3]
Matrix Compiler2: 4.53 KB object code size  0.4/0.8/[0.4]


