Questionable use of curly braces in ".model sir870adp vdmos(rg=3 vto=2.9 rd=3.2m rs=1.5m rb={m} kp=100 mtriode=1.85 cgdmax=1.4n cgdmin=70p cgs=2.9n cjo=3.6n m=.4 a=.7 vj=.7 lambda=20m is=3p ksubthres=.08 mfg=siliconix vds=100 ron=5.5m qg=53.5n)"
    Error: undefined symbol in: "[m]"
Circuit: * C:\Users\Alexey Revinski\Documents\1_CLASS\BME 390-2\IAR Projects\BME390\LTSpice\PulseGenerator1\PulseGen1.asc

Direct Newton iteration failed to find .op point.  (Use ".option noopiter" to skip.)
Starting Gmin stepping
Gmin = 10
Gmin = 1.07374
Gmin = 0.115292
Gmin = 0.0123794
Gmin = 0.00132923
Gmin = 0.000142725
Gmin = 1.5325e-005
Gmin = 1.6455e-006
Gmin = 1.76685e-007
Gmin = 1.89714e-008
Gmin = 2.03704e-009
Gmin = 2.18725e-010
Gmin = 2.34854e-011
Gmin = 2.52173e-012
Gmin = 2.70769e-013
Gmin = 0
Gmin stepping succeeded in finding the operating point.


Date: Sun Jan 15 12:28:22 2017
Total elapsed time: 0.500 seconds.

tnom = 27
temp = 27
method = modified trap
totiter = 41437
traniter = 41062
tranpoints = 13735
accept = 10908
rejected = 2827
matrix size = 23
fillins = 12
solver = Normal
Matrix Compiler1: 1.77 KB object code size  0.4/0.1/[0.1]
Matrix Compiler2: 2.10 KB object code size  0.4/0.3/[0.2]


