Questionable use of curly braces in ".model sir870adp vdmos(rg=3 vto=2.9 rd=3.2m rs=1.5m rb={m} kp=100 mtriode=1.85 cgdmax=1.4n cgdmin=70p cgs=2.9n cjo=3.6n m=.4 a=.7 vj=.7 lambda=20m is=3p ksubthres=.08 mfg=siliconix vds=100 ron=5.5m qg=53.5n)"
    Error: undefined symbol in: "[m]"
Circuit: * C:\Users\Alexey Revinski\Documents\1_CLASS\BME 390-2\IAR Projects\BME390\LTSpice\PulseGenerator1\PulseGen1.asc

Direct Newton iteration for .op point succeeded.
Heightened Def Con from 0.000101641 to 0.000101642
Heightened Def Con from 0.000166613 to 0.000166614
Heightened Def Con from 0.000237569 to 0.00023757
Heightened Def Con from 0.000316547 to 0.000316548
Heightened Def Con from 0.000368047 to 0.000368048
Heightened Def Con from 0.000372937 +++++to 0.000372937
Heightened Def Con from 0.000372937 to 0.000372937
Heightened Def Con from 0.000372937 to 0.000372937
Heightened Def Con from 0.000372937 to 0.000372937
Heightened Def Con from 0.000372937 +to 0.000372937
Heightened Def Con from 0.000372937 +to 0.000372937
Heightened Def Con from 0.000372937 to 0.000372937
Heightened Def Con from 0.000372937 to 0.000372937
Heightened Def Con from 0.000372937 to 0.000372937
Heightened Def Con from 0.000372937 to 0.000372937
Heightened Def Con from 0.000372937 to 0.000372937
Heightened Def Con from 0.000372937 to 0.000372937
Heightened Def Con from 0.000372937 to 0.000372937
Heightened Def Con from 0.000372937 +to 0.000372937
Heightened Def Con from 0.000372937 to 0.000372937
Heightened Def Con from 0.000372937 to 0.000372937
Heightened Def Con from 0.000372937 to 0.000372937
Heightened Def Con from 0.000372937 to 0.000372937
Heightened Def Con from 0.000372937 to 0.000372937
Heightened Def Con from 0.000372937 to 0.000372937
Heightened Def Con from 0.000372937 +to 0.000372937
Heightened Def Con from 0.000372937 to 0.000372937
Heightened Def Con from 0.000372937 to 0.000372937
Heightened Def Con from 0.000372937 to 0.000372937
Heightened Def Con from 0.000372937 to 0.000372937
Heightened Def Con from 0.000372937 to 0.000372937
Heightened Def Con from 0.000372937 to 0.000372937
Heightened Def Con from 0.000372937 to 0.000372937
Heightened Def Con from 0.000372937 to 0.000372937
Heightened Def Con from 0.000372937 +to 0.000372937
Heightened Def Con from 0.000372937 +to 0.000372937
Heightened Def Con from 0.000372937 to 0.000372937
Heightened Def Con from 0.000372937 +++++to 0.000372937
Heightened Def Con from 0.000372937 to 0.000372937
Heightened Def Con from 0.000372937 +to 0.000372937
Heightened Def Con from 0.000372937 to 0.000372937
Heightened Def Con from 0.000372937 to 0.000372937
Heightened Def Con from 0.000372937 ++to 0.000372937
Heightened Def Con from 0.000372937 to 0.000372937
Heightened Def Con from 0.000372937 to 0.000372937
Heightened Def Con from 0.000372937 to 0.000372937
Heightened Def Con from 0.000372937 to 0.000372937
Heightened Def Con from 0.000372937 to 0.000372937
Heightened Def Con from 0.000372937 to 0.000372937
Heightened Def Con from 0.000372937 to 0.000372937
Heightened Def Con from 0.000372937 to 0.000372937
Heightened Def Con from 0.000372937 to 0.000372937
Heightened Def Con from 0.000372937 +to 0.000372937
Heightened Def Con from 0.000372937 ++++++++++++to 0.000372937
Heightened Def Con from 0.000372937 to 0.000372937
Heightened Def Con from 0.000372937 +to 0.000372937
Heightened Def Con from 0.000372937 ++to 0.000372937
Heightened Def Con from 0.000372937 +++to 0.000372937
Heightened Def Con from 0.000372937 to 0.000372937
Heightened Def Con from 0.000372937 ++to 0.000372937
Heightened Def Con from 0.000372937 ++to 0.000372937
Heightened Def Con from 0.000372937 +to 0.000372937
Heightened Def Con from 0.000372937 +++++++++++to 0.000372937
Heightened Def Con from 0.000372937 to 0.000372937
Heightened Def Con from 0.000372937 ++to 0.000372937
Heightened Def Con from 0.000372937 to 0.000372937
Heightened Def Con from 0.000372937 +++++++++++to 0.000372937
Heightened Def Con from 0.000372937 to 0.000372937
Heightened Def Con from 0.000372937 +++++++++++to 0.000372937
Heightened Def Con from 0.000372937 +++to 0.000372937
Heightened Def Con from 0.000372937 +to 0.000372937
Heightened Def Con from 0.000372937 to 0.000372937
Heightened Def Con from 0.000372937 to 0.000372937
Heightened Def Con from 0.000372937 +to 0.000372937
Heightened Def Con from 0.000372937 to 0.000372937
Heightened Def Con from 0.000372937 to 0.000372937
Heightened Def Con from 0.000372937 to 0.000372937
Heightened Def Con from 0.000372937 to 0.000372937
Heightened Def Con from 0.000372937 to 0.000372937
Heightened Def Con from 0.000372937 to 0.000372937
Heightened Def Con from 0.000372937 to 0.000372937
Heightened Def Con from 0.000372937 to 0.000372937
Heightened Def Con from 0.000372937 to 0.000372937
Heightened Def Con from 0.000372937 to 0.000372937
Heightened Def Con from 0.000372937 to 0.000372937
Heightened Def Con from 0.000372937 to 0.000372937
Heightened Def Con from 0.000372937 to 0.000372937
Heightened Def Con from 0.000372937 to 0.000372937
Heightened Def Con from 0.000372937 to 0.000372937
Heightened Def Con from 0.000372937 to 0.000372937
Heightened Def Con from 0.000372937 to 0.000372937
Heightened Def Con from 0.000372937 to 0.000372937
Heightened Def Con from 0.000372937 to 0.000372937
Heightened Def Con from 0.000372937 to 0.000372937
Heightened Def Con from 0.000372937 to 0.000372937
Heightened Def Con from 0.000372937 to 0.000372937
Heightened Def Con from 0.000372937 to 0.000372937
Heightened Def Con from 0.000372937 to 0.000372937
Heightened Def Con from 0.000372937 to 0.000372937
Heightened Def Con from 0.000372937 to 0.000372937
Heightened Def Con from 0.000372937 to 0.000372937
Heightened Def Con from 0.000372937 to 0.000372937
Heightened Def Con from 0.000372937 +to 0.000372937
Heightened Def Con from 0.000372937 to 0.000372937
Heightened Def Con from 0.000372937 to 0.000372937
Heightened Def Con from 0.000372937 to 0.000372937
Heightened Def Con from 0.000372937 to 0.000372937
Heightened Def Con from 0.000372937 to 0.000372937
Heightened Def Con from 0.000372937 to 0.000372937
Heightened Def Con from 0.000372937 to 0.000372937
Heightened Def Con from 0.000372937 to 0.000372937
Heightened Def Con from 0.000372937 to 0.000372937
Heightened Def Con from 0.000372937 to 0.000372937
Heightened Def Con from 0.000372937 to 0.000372937
Heightened Def Con from 0.000372937 +to 0.000372937
Heightened Def Con from 0.000372937 to 0.000372937
Heightened Def Con from 0.000372937 to 0.000372937
Heightened Def Con from 0.000372937 to 0.000372937
Heightened Def Con from 0.000372937 to 0.000372937
Heightened Def Con from 0.000372937 to 0.000372937
Heightened Def Con from 0.000372937 to 0.000372937
Heightened Def Con from 0.000372937 to 0.000372937
Heightened Def Con from 0.000372937 to 0.000372937
Heightened Def Con from 0.000372937 to 0.000372937
Heightened Def Con from 0.000372937 to 0.000372937
Heightened Def Con from 0.000372937 to 0.000372937
Heightened Def Con from 0.000372937 to 0.000372937
Heightened Def Con from 0.000372937 to 0.000372937
Heightened Def Con from 0.000372937 to 0.000372937
Heightened Def Con from 0.000372937 to 0.000372937
Heightened Def Con from 0.000372937 to 0.000372937
Heightened Def Con from 0.000372937 to 0.000372937
Heightened Def Con from 0.000372937 to 0.000372937
Heightened Def Con from 0.000372937 to 0.000372937
Heightened Def Con from 0.000372937 to 0.000372937
Heightened Def Con from 0.000372937 to 0.000372937
Heightened Def Con from 0.000372937 to 0.000372937
Heightened Def Con from 0.000372937 to 0.000372937
Heightened Def Con from 0.000372937 to 0.000372937
Heightened Def Con from 0.000372937 to 0.000372937
Heightened Def Con from 0.000372937 to 0.000372937
Heightened Def Con from 0.000372937 to 0.000372937
Heightened Def Con from 0.000372937 to 0.000372937
Heightened Def Con from 0.000372937 to 0.000372937
Heightened Def Con from 0.000372937 to 0.000372937
Heightened Def Con from 0.000372937 to 0.000372937
Heightened Def Con from 0.000372937 to 0.000372937
Heightened Def Con from 0.000372937 to 0.000372937
Heightened Def Con from 0.000372937 to 0.000372937
Heightened Def Con from 0.000372937 to 0.000372937
Heightened Def Con from 0.000372937 to 0.000372937
Heightened Def Con from 0.000372937 to 0.000372937
Heightened Def Con from 0.000372937 to 0.000372937
Heightened Def Con from 0.000372937 to 0.000372937
Heightened Def Con from 0.000372937 to 0.000372937
Heightened Def Con from 0.000372937 to 0.000372937
Heightened Def Con from 0.000372937 +to 0.000372937
Heightened Def Con from 0.000372937 to 0.000372937
Heightened Def Con from 0.000372937 to 0.000372937
Heightened Def Con from 0.000372937 ++to 0.000372937
Heightened Def Con from 0.000372937 to 0.000372937
Heightened Def Con from 0.000372937 to 0.000372937
Heightened Def Con from 0.000372937 ++to 0.000372937
Heightened Def Con from 0.000372937 +to 0.000372937
Heightened Def Con from 0.000372937 to 0.000372937
Heightened Def Con from 0.000372937 to 0.000372937
Heightened Def Con from 0.000372937 to 0.000372937
Heightened Def Con from 0.000372937 to 0.000372937
Heightened Def Con from 0.000372937 to 0.000372937
Heightened Def Con from 0.000372937 to 0.000372937
Heightened Def Con from 0.000372937 to 0.000372937
Heightened Def Con from 0.000372937 to 0.000372937
Heightened Def Con from 0.000372937 to 0.000372937
Heightened Def Con from 0.000372937 to 0.000372937
Heightened Def Con from 0.000372937 to 0.000372937
Heightened Def Con from 0.000372937 to 0.000372937
Heightened Def Con from 0.000372937 to 0.000372937
Heightened Def Con from 0.000372937 to 0.000372937
Heightened Def Con from 0.000372937 to 0.000372937
Heightened Def Con from 0.000372937 to 0.000372937
Heightened Def Con from 0.000372937 to 0.000372937
Heightened Def Con from 0.000372937 to 0.000372937
Heightened Def Con from 0.000372937 to 0.000372937
Heightened Def Con from 0.000372937 to 0.000372937
Heightened Def Con from 0.000372937 to 0.000372937
Heightened Def Con from 0.000372937 to 0.000372937
Heightened Def Con from 0.000372937 +to 0.000372937
Heightened Def Con from 0.000372937 ++to 0.000372937
Heightened Def Con from 0.000372937 to 0.000372937
Heightened Def Con from 0.000372937 to 0.000372937
Heightened Def Con from 0.000372937 to 0.000372937
Heightened Def Con from 0.000372937 to 0.000372937
Heightened Def Con from 0.000372937 to 0.000372937
Heightened Def Con from 0.000372937 to 0.000372937
Heightened Def Con from 0.000372937 to 0.000372937
Heightened Def Con from 0.000372937 to 0.000372937
Heightened Def Con from 0.000372937 to 0.000372937
Heightened Def Con from 0.000372937 to 0.000372937
Heightened Def Con from 0.000372937 to 0.000372937
Heightened Def Con from 0.000372937 to 0.000372937
Heightened Def Con from 0.000372937 to 0.000372937
Heightened Def Con from 0.000372937 to 0.000372937
Heightened Def Con from 0.000372937 to 0.000372937
Heightened Def Con from 0.000372937 to 0.000372937
Heightened Def Con from 0.000372937 to 0.000372937
Heightened Def Con from 0.000372937 to 0.000372937
Heightened Def Con from 0.000372937 to 0.000372937
Heightened Def Con from 0.000372937 to 0.000372937
Heightened Def Con from 0.000372937 to 0.000372937
Heightened Def Con from 0.000372937 to 0.000372937
Heightened Def Con from 0.000372937 to 0.000372937
Heightened Def Con from 0.000372937 +to 0.000372937
Heightened Def Con from 0.000372937 to 0.000372937
Heightened Def Con from 0.000372937 to 0.000372937
Heightened Def Con from 0.000372937 to 0.000372937
Heightened Def Con from 0.000372937 to 0.000372937
Heightened Def Con from 0.000372937 to 0.000372937
Heightened Def Con from 0.000372937 to 0.000372937
Heightened Def Con from 0.000372937 to 0.000372937
Heightened Def Con from 0.000372937 to 0.000372937
Heightened Def Con from 0.000372937 to 0.000372937
Heightened Def Con from 0.000372937 to 0.000372937
Heightened Def Con from 0.000372937 to 0.000372937
Heightened Def Con from 0.000372937 to 0.000372937
Heightened Def Con from 0.000372937 to 0.000372937
Heightened Def Con from 0.000372937 to 0.000372937
Heightened Def Con from 0.000372937 to 0.000372937
Heightened Def Con from 0.000372937 to 0.000372937
Heightened Def Con from 0.000372937 to 0.000372937
Heightened Def Con from 0.000372937 to 0.000372937
Heightened Def Con from 0.000372937 to 0.000372937
Heightened Def Con from 0.000372937 to 0.000372937
Heightened Def Con from 0.000372937 to 0.000372937
Heightened Def Con from 0.000372937 to 0.000372937
Heightened Def Con from 0.000372937 to 0.000372937
Heightened Def Con from 0.000372937 to 0.000372937
Heightened Def Con from 0.000372937 to 0.000372937
Heightened Def Con from 0.000372937 to 0.000372937
Heightened Def Con from 0.000372937 to 0.000372937
Heightened Def Con from 0.000372937 to 0.000372937
Heightened Def Con from 0.000372937 to 0.000372937
Heightened Def Con from 0.000372937 to 0.000372937
Heightened Def Con from 0.000372937 +to 0.000372937
Heightened Def Con from 0.000372937 to 0.000372937
Heightened Def Con from 0.000372937 to 0.000372937
Heightened Def Con from 0.000372937 +to 0.000372937
Heightened Def Con from 0.000372937 +to 0.000372937
Heightened Def Con from 0.000372937 +to 0.000372937
Heightened Def Con from 0.000372937 to 0.000372937
Heightened Def Con from 0.000372937 to 0.000372937
Heightened Def Con from 0.000372937 to 0.000372937
Heightened Def Con from 0.000372937 to 0.000372937
Heightened Def Con from 0.000372937 to 0.000372937
Heightened Def Con from 0.000372937 to 0.000372937
Heightened Def Con from 0.000372937 to 0.000372937
Heightened Def Con from 0.000372937 to 0.000372937
Heightened Def Con from 0.000372937 to 0.000372937
Heightened Def Con from 0.000372937 to 0.000372937
Heightened Def Con from 0.000372937 to 0.000372937
Heightened Def Con from 0.000372937 to 0.000372937
Heightened Def Con from 0.000372937 to 0.000372937
Heightened Def Con from 0.000372937 +to 0.000372937
Heightened Def Con from 0.000372937 to 0.000372937
Heightened Def Con from 0.000372937 to 0.000372937
Heightened Def Con from 0.000372937 to 0.000372937
Heightened Def Con from 0.000372937 to 0.000372937
Heightened Def Con from 0.000372937 to 0.000372937
Heightened Def Con from 0.000372937 to 0.000372937
Heightened Def Con from 0.000372937 to 0.000372937
Heightened Def Con from 0.000372937 to 0.000372937
Heightened Def Con from 0.000372937 to 0.000372937
Heightened Def Con from 0.000372937 to 0.000372937
Heightened Def Con from 0.000372937 to 0.000372937
Heightened Def Con from 0.000372937 to 0.000372937
Heightened Def Con from 0.000372937 to 0.000372937
Heightened Def Con from 0.000372937 to 0.000372937
Heightened Def Con from 0.000372937 to 0.000372937
Heightened Def Con from 0.000372937 +to 0.000372937
Heightened Def Con from 0.000372937 +to 0.000372937
Heightened Def Con from 0.000372937 to 0.000372937
Heightened Def Con from 0.000372937 to 0.000372937
Heightened Def Con from 0.000372937 to 0.000372937
Heightened Def Con from 0.000372937 to 0.000372937
Heightened Def Con from 0.000372937 to 0.000372937
Heightened Def Con from 0.000372937 to 0.000372937
Heightened Def Con from 0.000372937 to 0.000372937
Heightened Def Con from 0.000372937 to 0.000372937
Heightened Def Con from 0.000372937 to 0.000372937
Heightened Def Con from 0.000372937 to 0.000372937
Heightened Def Con from 0.000372937 to 0.000372937
Heightened Def Con from 0.000372937 to 0.000372937
Heightened Def Con from 0.000372937 to 0.000372937
Heightened Def Con from 0.000372937 to 0.000372937
Heightened Def Con from 0.000372937 to 0.000372937
Heightened Def Con from 0.000372937 to 0.000372937
Heightened Def Con from 0.000372937 to 0.000372937
Heightened Def Con from 0.000372937 to 0.000372937
Heightened Def Con from 0.000372937 to 0.000372937
Heightened Def Con from 0.000372937 ++to 0.000372937
Heightened Def Con from 0.000372937 to 0.000372937
Heightened Def Con from 0.000372937 to 0.000372937
Heightened Def Con from 0.000372937 to 0.000372937
Heightened Def Con from 0.000372937 to 0.000372937
Heightened Def Con from 0.000372937 to 0.000372937
Heightened Def Con from 0.000372937 +to 0.000372937
Heightened Def Con from 0.000372937 to 0.000372937
Heightened Def Con from 0.000372937 to 0.000372937
Heightened Def Con from 0.000372937 +to 0.000372937
Heightened Def Con from 0.000372937 to 0.000372937
Heightened Def Con from 0.000372937 to 0.000372937
Heightened Def Con from 0.000372937 to 0.000372937
Heightened Def Con from 0.000372937 to 0.000372937
Heightened Def Con from 0.000372937 to 0.000372937
Heightened Def Con from 0.000372937 to 0.000372937
Heightened Def Con from 0.000372937 to 0.000372937
Heightened Def Con from 0.000372937 to 0.000372937
Heightened Def Con from 0.000372937 to 0.000372937
Heightened Def Con from 0.000372937 to 0.000372937
Heightened Def Con from 0.000372937 to 0.000372937
Heightened Def Con from 0.000372937 to 0.000372937
Heightened Def Con from 0.000372937 to 0.000372937
Heightened Def Con from 0.000372937 to 0.000372937
Heightened Def Con from 0.000372937 to 0.000372937
Heightened Def Con from 0.000372937 to 0.000372937
Heightened Def Con from 0.000372937 to 0.000372937
Heightened Def Con from 0.000372937 to 0.000372937
Heightened Def Con from 0.000372937 to 0.000372937
Heightened Def Con from 0.000372937 to 0.000372937
Heightened Def Con from 0.000372937 to 0.000372937
Heightened Def Con from 0.000372937 to 0.000372937
Heightened Def Con from 0.000372937 to 0.000372937
Heightened Def Con from 0.000372937 to 0.000372937
Heightened Def Con from 0.000372937 to 0.000372937
Heightened Def Con from 0.000372937 to 0.000372937
Heightened Def Con from 0.000372937 to 0.000372937
Heightened Def Con from 0.000372937 to 0.000372937
Heightened Def Con from 0.000372937 to 0.000372937
Heightened Def Con from 0.000372937 to 0.000372937
Heightened Def Con from 0.000372937 to 0.000372937
Heightened Def Con from 0.000372937 to 0.000372937
Heightened Def Con from 0.000372937 to 0.000372937
Heightened Def Con from 0.000372937 to 0.000372937
Heightened Def Con from 0.000372937 to 0.000372937
Heightened Def Con from 0.000372937 to 0.000372937
Heightened Def Con from 0.000372937 to 0.000372937
Heightened Def Con from 0.000372937 +to 0.000372937
Heightened Def Con from 0.000372937 +to 0.000372937
Heightened Def Con from 0.000372937 +++++++++++to 0.000372937
Heightened Def Con from 0.000372937 ++++++to 0.000372937
Heightened Def Con from 0.000372937 ++to 0.000372937
Heightened Def Con from 0.000372937 to 0.000372937
Heightened Def Con from 0.000372937 to 0.000372937
Heightened Def Con from 0.000372937 +to 0.000372937
Heightened Def Con from 0.000372937 +to 0.000372937
Heightened Def Con from 0.000372937 to 0.000372937
Heightened Def Con from 0.000372937 to 0.000372937
Heightened Def Con from 0.000372937 to 0.000372937
Heightened Def Con from 0.000372937 to 0.000372937
Heightened Def Con from 0.000372937 +to 0.000372937
Heightened Def Con from 0.000372937 to 0.000372937
Heightened Def Con from 0.000372937 +to 0.000372937
Heightened Def Con from 0.000372937 +to 0.000372937
Heightened Def Con from 0.000372937 +to 0.000372937
Heightened Def Con from 0.000372937 +to 0.000372937
Heightened Def Con from 0.000372937 +to 0.000372937
Heightened Def Con from 0.000372937 +to 0.000372937
Heightened Def Con from 0.000372937 +to 0.000372937
Heightened Def Con from 0.000372937 +to 0.000372937
Heightened Def Con from 0.000372937 +to 0.000372937
Heightened Def Con from 0.000372937 to 0.000372937
Heightened Def Con from 0.000372937 to 0.000372937
Heightened Def Con from 0.000372937 to 0.000372937
Heightened Def Con from 0.000372937 to 0.000372937
Heightened Def Con from 0.000372937 to 0.000372937
Heightened Def Con from 0.000372937 to 0.000372937
Heightened Def Con from 0.000372937 to 0.000372937
Heightened Def Con from 0.000372937 to 0.000372937
Heightened Def Con from 0.000372937 to 0.000372937
Heightened Def Con from 0.000372937 to 0.000372937
Heightened Def Con from 0.000372937 to 0.000372937
Heightened Def Con from 0.000372937 to 0.000372937
Heightened Def Con from 0.000372937 +to 0.000372937
Heightened Def Con from 0.000372937 +to 0.000372937
Heightened Def Con from 0.000372937 +to 0.000372937
Heightened Def Con from 0.000372937 +to 0.000372937
Heightened Def Con from 0.000372937 +to 0.000372937
Heightened Def Con from 0.000372937 +to 0.000372937
Heightened Def Con from 0.000372937 to 0.000372937
Heightened Def Con from 0.000372937 ++to 0.000372937
Heightened Def Con from 0.000372937 +to 0.000372937
Heightened Def Con from 0.000372937 +to 0.000372937
Heightened Def Con from 0.000372937 +to 0.000372937
Heightened Def Con from 0.000372937 +to 0.000372937
Heightened Def Con from 0.000372937 +to 0.000372937
Heightened Def Con from 0.000372937 +to 0.000372937
Heightened Def Con from 0.000372937 +++to 0.000372937
Heightened Def Con from 0.000372937 +++++to 0.000372937
Heightened Def Con from 0.000372937 +to 0.000372937
Heightened Def Con from 0.000372937 to 0.000372937
Heightened Def Con from 0.000372937 to 0.000372937
Heightened Def Con from 0.000372937 to 0.000372937
Heightened Def Con from 0.000372937 +to 0.000372937
Heightened Def Con from 0.000372937 +to 0.000372937
Heightened Def Con from 0.000372937 +to 0.000372937
Heightened Def Con from 0.000372937 +to 0.000372937
Heightened Def Con from 0.000372937 +to 0.000372937
Heightened Def Con from 0.000372937 +to 0.000372937
Heightened Def Con from 0.000372937 +to 0.000372937
Heightened Def Con from 0.000372937 +to 0.000372937
Heightened Def Con from 0.000372937 +++to 0.000372937
Heightened Def Con from 0.000372937 ++to 0.000372937
Heightened Def Con from 0.000372937 +to 0.000372937
Heightened Def Con from 0.000372937 to 0.000372937
Heightened Def Con from 0.000372937 to 0.000372937
Heightened Def Con from 0.000372937 +to 0.000372937
Heightened Def Con from 0.000372937 +to 0.000372937
Heightened Def Con from 0.000372937 ++++to 0.000372937
Heightened Def Con from 0.000372937 +to 0.000372937
Heightened Def Con from 0.000372937 to 0.000372937
Heightened Def Con from 0.000372937 to 0.000372937
Heightened Def Con from 0.000372937 +to 0.000372937
Heightened Def Con from 0.000372937 +to 0.000372937
Heightened Def Con from 0.000372937 +to 0.000372937
Heightened Def Con from 0.000372937 to 0.000372937
Heightened Def Con from 0.000372937 to 0.000372937
Heightened Def Con from 0.000372937 to 0.000372937
Heightened Def Con from 0.000372937 to 0.000372937
Heightened Def Con from 0.000372937 to 0.000372937
Heightened Def Con from 0.000372937 to 0.000372937
Heightened Def Con from 0.000372937 +to 0.000372937
Heightened Def Con from 0.000372937 +to 0.000372937
Heightened Def Con from 0.000372937 +to 0.000372937
Heightened Def Con from 0.000372937 +to 0.000372937
Heightened Def Con from 0.000372937 +to 0.000372937
Heightened Def Con from 0.000372937 +to 0.000372937
Heightened Def Con from 0.000372937 +to 0.000372937
Heightened Def Con from 0.000372937 ++to 0.000372937
Heightened Def Con from 0.000372937 ++to 0.000372937
Heightened Def Con from 0.000372937 +to 0.000372937
Heightened Def Con from 0.000372937 +to 0.000372937
Heightened Def Con from 0.000372937 +to 0.000372937
Heightened Def Con from 0.000372937 +to 0.000372937
Heightened Def Con from 0.000372937 +to 0.000372937
Heightened Def Con from 0.000372937 +to 0.000372937
Heightened Def Con from 0.000372937 +to 0.000372937
Heightened Def Con from 0.000372937 +to 0.000372937
Heightened Def Con from 0.000372937 +to 0.000372937
Heightened Def Con from 0.000372937 to 0.000372937
Heightened Def Con from 0.000372937 to 0.000372937
Heightened Def Con from 0.000372937 to 0.000372937
Heightened Def Con from 0.000372937 to 0.000372937
Heightened Def Con from 0.000372937 to 0.000372937
Heightened Def Con from 0.000372937 to 0.000372937
Heightened Def Con from 0.000372937 to 0.000372937
Heightened Def Con from 0.000372937 to 0.000372937
Heightened Def Con from 0.000372937 to 0.000372937
Heightened Def Con from 0.000372937 +to 0.000372937
Heightened Def Con from 0.000372937 +to 0.000372937
Heightened Def Con from 0.000372937 +to 0.000372937
Heightened Def Con from 0.000372937 +to 0.000372937
Heightened Def Con from 0.000372937 +to 0.000372937
Heightened Def Con from 0.000372937 +to 0.000372937
Heightened Def Con from 0.000372937 +to 0.000372937
Heightened Def Con from 0.000372937 to 0.000372937
Heightened Def Con from 0.000372937 to 0.000372937
Heightened Def Con from 0.000372937 to 0.000372937
Heightened Def Con from 0.000372937 to 0.000372937
Heightened Def Con from 0.000372937 to 0.000372937
Heightened Def Con from 0.000372937 to 0.000372937
Heightened Def Con from 0.000372937 to 0.000372937
Heightened Def Con from 0.000372937 to 0.000372937
Heightened Def Con from 0.000372937 to 0.000372937
Heightened Def Con from 0.000372937 to 0.000372937
Heightened Def Con from 0.000372937 to 0.000372937
Heightened Def Con from 0.000372937 +to 0.000372937
Heightened Def Con from 0.000372937 +to 0.000372937
Heightened Def Con from 0.000372937 +to 0.000372937
Heightened Def Con from 0.000372937 to 0.000372937
Heightened Def Con from 0.000372937 to 0.000372937
Heightened Def Con from 0.000372937 to 0.000372937
Heightened Def Con from 0.000372937 to 0.000372937
Heightened Def Con from 0.000372937 +to 0.000372937
Heightened Def Con from 0.000372937 +to 0.000372937
Heightened Def Con from 0.000372937 +to 0.000372937
Heightened Def Con from 0.000372937 +to 0.000372937
Heightened Def Con from 0.000372937 +to 0.000372937
Heightened Def Con from 0.000372937 +to 0.000372937
Heightened Def Con from 0.000372937 +to 0.000372937
Heightened Def Con from 0.000372937 +to 0.000372937
Heightened Def Con from 0.000372937 +to 0.000372937
Heightened Def Con from 0.000372937 +to 0.000372937
Heightened Def Con from 0.000372937 +to 0.000372937
Heightened Def Con from 0.000372937 +to 0.000372937
Heightened Def Con from 0.000372937 +to 0.000372937
Heightened Def Con from 0.000372937 +to 0.000372937
Heightened Def Con from 0.000372937 +to 0.000372937
Heightened Def Con from 0.000372937 +to 0.000372937
Heightened Def Con from 0.000372937 to 0.000372937
Heightened Def Con from 0.000372937 to 0.000372937
Heightened Def Con from 0.000372937 to 0.000372937
Heightened Def Con from 0.000372937 to 0.000372937
Heightened Def Con from 0.000372937 +to 0.000372937
Heightened Def Con from 0.000372937 +to 0.000372937
Heightened Def Con from 0.000372937 +to 0.000372937
Heightened Def Con from 0.000372937 +to 0.000372937
Heightened Def Con from 0.000372937 +to 0.000372937
Heightened Def Con from 0.000372937 +to 0.000372937
Heightened Def Con from 0.000372937 +to 0.000372937
Heightened Def Con from 0.000372937 +to 0.000372937
Heightened Def Con from 0.000372937 ++to 0.000372937
Heightened Def Con from 0.000372937 +to 0.000372937
Heightened Def Con from 0.000372937 +to 0.000372937
Heightened Def Con from 0.000372937 ++to 0.000372937
Heightened Def Con from 0.000372937 +to 0.000372937
Heightened Def Con from 0.000372937 to 0.000372937
Heightened Def Con from 0.000372937 to 0.000372937
Heightened Def Con from 0.000372937 to 0.000372937
Heightened Def Con from 0.000372937 to 0.000372937
Heightened Def Con from 0.000372937 +to 0.000372937
Heightened Def Con from 0.000372937 +to 0.000372937
Heightened Def Con from 0.000372937 +to 0.000372937
Heightened Def Con from 0.000372937 +to 0.000372937
Heightened Def Con from 0.000372937 to 0.000372937
Heightened Def Con from 0.000372937 to 0.000372937
Heightened Def Con from 0.000372937 +to 0.000372937
Heightened Def Con from 0.000372937 +to 0.000372937
Heightened Def Con from 0.000372937 +to 0.000372937
Heightened Def Con from 0.000372937 +to 0.000372937
Heightened Def Con from 0.000372937 +to 0.000372937
Heightened Def Con from 0.000372937 +to 0.000372937
Heightened Def Con from 0.000372937 +to 0.000372937
Heightened Def Con from 0.000372937 +to 0.000372937
Heightened Def Con from 0.000372937 +to 0.000372937
Heightened Def Con from 0.000372937 to 0.000372937
Heightened Def Con from 0.000372937 to 0.000372937
Heightened Def Con from 0.000372937 to 0.000372937
Heightened Def Con from 0.000372937 to 0.000372937
Heightened Def Con from 0.000372937 to 0.000372937
Heightened Def Con from 0.000372937 to 0.000372937
Heightened Def Con from 0.000372937 +to 0.000372937
Heightened Def Con from 0.000372937 +to 0.000372937
Heightened Def Con from 0.000372937 +to 0.000372937
Heightened Def Con from 0.000372937 +to 0.000372937
Heightened Def Con from 0.000372937 +to 0.000372937
Heightened Def Con from 0.000372937 +to 0.000372937
Heightened Def Con from 0.000372937 +to 0.000372937
Heightened Def Con from 0.000372937 +to 0.000372937
Heightened Def Con from 0.000372937 +to 0.000372937
Heightened Def Con from 0.000372937 +to 0.000372937
Heightened Def Con from 0.000372937 +to 0.000372937
Heightened Def Con from 0.000372937 to 0.000372937
Heightened Def Con from 0.000372937 to 0.000372937
Heightened Def Con from 0.000372937 to 0.000372937
Heightened Def Con from 0.000372937 to 0.000372937
Heightened Def Con from 0.000372937 +to 0.000372937
Heightened Def Con from 0.000372937 +to 0.000372937
Heightened Def Con from 0.000372937 to 0.000372937
Heightened Def Con from 0.000372937 to 0.000372937
Heightened Def Con from 0.000372937 to 0.000372937
Heightened Def Con from 0.000372937 +to 0.000372937
Heightened Def Con from 0.000372937 ++to 0.000372937
Heightened Def Con from 0.000372937 ++to 0.000372937
Heightened Def Con from 0.000372937 +to 0.000372937
Heightened Def Con from 0.000372937 to 0.000372937
Heightened Def Con from 0.000372937 to 0.000372937
Heightened Def Con from 0.000372937 +to 0.000372937
Heightened Def Con from 0.000372937 +to 0.000372937
Heightened Def Con from 0.000372937 +to 0.000372937
Heightened Def Con from 0.000372937 +to 0.000372937
Heightened Def Con from 0.000372937 +to 0.000372937
Heightened Def Con from 0.000372937 +to 0.000372937
Heightened Def Con from 0.000372937 to 0.000372937
Heightened Def Con from 0.000372937 to 0.000372937
Heightened Def Con from 0.000372937 +to 0.000372937
Heightened Def Con from 0.000372937 ++to 0.000372937
Heightened Def Con from 0.000372937 ++to 0.000372937
Heightened Def Con from 0.000372937 +++to 0.000372937
Heightened Def Con from 0.000372937 +to 0.000372937
Heightened Def Con from 0.000372937 to 0.000372937
Heightened Def Con from 0.000372937 to 0.000372937
Heightened Def Con from 0.000372937 to 0.000372937
Heightened Def Con from 0.000372937 +++++to 0.000372937
Heightened Def Con from 0.000372937 ++to 0.000372937
Heightened Def Con from 0.000372937 ++to 0.000372937
Heightened Def Con from 0.000372937 ++to 0.000372937
Heightened Def Con from 0.000372937 +++to 0.000372937
Heightened Def Con from 0.000372937 +to 0.000372937
Heightened Def Con from 0.000372937 ++++++to 0.000372937
Heightened Def Con from 0.000372937 +to 0.000372937
Heightened Def Con from 0.000372937 ++to 0.000372937
Heightened Def Con from 0.000372937 ++to 0.000372937
Heightened Def Con from 0.000372937 +to 0.000372937
Heightened Def Con from 0.000372937 +to 0.000372937
Heightened Def Con from 0.000372937 +++to 0.000372937
Heightened Def Con from 0.000372937 ++to 0.000372937
Heightened Def Con from 0.000372937 +to 0.000372937
Heightened Def Con from 0.000372937 +++++++to 0.000372937
Heightened Def Con from 0.000372937 ++to 0.000372937
Heightened Def Con from 0.000372937 to 0.000372937
Heightened Def Con from 0.000372937 +to 0.000372937
Heightened Def Con from 0.000372937 +++to 0.000372937
Heightened Def Con from 0.000372937 +to 0.000372937
Heightened Def Con from 0.000372937 +++to 0.000372937
Heightened Def Con from 0.000372937 +to 0.000372937
Heightened Def Con from 0.000372937 +++to 0.000372937
Heightened Def Con from 0.000372937 ++to 0.000372937
Heightened Def Con from 0.000372937 +++to 0.000372937
Heightened Def Con from 0.000372937 +to 0.000372937
Heightened Def Con from 0.000372937 +to 0.000372937
Heightened Def Con from 0.000372937 ++to 0.000372937
Heightened Def Con from 0.000372937 to 0.000372937
Heightened Def Con from 0.000372937 to 0.000372937
Heightened Def Con from 0.000372937 +to 0.000372937
Heightened Def Con from 0.000372937 +to 0.000372937
Heightened Def Con from 0.000372937 ++to 0.000372937
Heightened Def Con from 0.000372937 ++to 0.000372937
Heightened Def Con from 0.000372937 ++to 0.000372937
Heightened Def Con from 0.000372937 +to 0.000372937
Heightened Def Con from 0.000372937 +++to 0.000372937
Heightened Def Con from 0.000372937 +to 0.000372937
Heightened Def Con from 0.000372937 to 0.000372937
Heightened Def Con from 0.000372937 +++to 0.000372937
Heightened Def Con from 0.000372937 +to 0.000372937
Heightened Def Con from 0.000372937 +++to 0.000372937
Heightened Def Con from 0.000372937 ++to 0.000372937
Heightened Def Con from 0.000372937 +++to 0.000372937
Heightened Def Con from 0.000372937 +++to 0.000372937
Heightened Def Con from 0.000372937 +to 0.000372937
Heightened Def Con from 0.000372937 +to 0.000372937
Heightened Def Con from 0.000372937 ++to 0.000372937
Heightened Def Con from 0.000372937 +++++++to 0.000372937
Heightened Def Con from 0.000372937 ++to 0.000372937
Heightened Def Con from 0.000372937 +++to 0.000372937
Heightened Def Con from 0.000372937 +to 0.000372937
Heightened Def Con from 0.000372937 +to 0.000372937
Heightened Def Con from 0.000372937 ++to 0.000372937
Heightened Def Con from 0.000372937 +to 0.000372937
Heightened Def Con from 0.000372937 +to 0.000372937
Heightened Def Con from 0.000372937 ++++to 0.000372937
Heightened Def Con from 0.000372937 +to 0.000372937
Heightened Def Con from 0.000372937 ++to 0.000372937
Heightened Def Con from 0.000372937 ++++to 0.000372937
Heightened Def Con from 0.000372937 +to 0.000372937
Heightened Def Con from 0.000372937 ++++++to 0.000372937
Heightened Def Con from 0.000372937 +to 0.000372937
Heightened Def Con from 0.000372937 ++to 0.000372937
Heightened Def Con from 0.000372937 +++to 0.000372937
Heightened Def Con from 0.000372937 ++to 0.000372937
Heightened Def Con from 0.000372937 +++++++++++to 0.000372937
Heightened Def Con from 0.000372937 +to 0.000372937
Heightened Def Con from 0.000372937 to 0.000372937
Heightened Def Con from 0.000372937 to 0.000372937
Heightened Def Con from 0.000372937 to 0.000372937
Heightened Def Con from 0.000372937 to 0.000372937
Heightened Def Con from 0.000372937 to 0.000372937
Heightened Def Con from 0.000372937 to 0.000372937
Heightened Def Con from 0.000372937 to 0.000372937
Heightened Def Con from 0.000372937 to 0.000372937
Heightened Def Con from 0.000372937 to 0.000372937
Heightened Def Con from 0.000372937 to 0.000372937
Heightened Def Con from 0.000372937 to 0.000372937
Heightened Def Con from 0.000372937 to 0.000372937
Heightened Def Con from 0.000372937 to 0.000372937
Heightened Def Con from 0.000372937 to 0.000372937
Heightened Def Con from 0.000372937 to 0.000372937
Heightened Def Con from 0.000372937 to 0.000372937
Heightened Def Con from 0.000372937 to 0.000372937
Heightened Def Con from 0.000372937 to 0.000372937
Heightened Def Con from 0.000372937 to 0.000372937
Heightened Def Con from 0.000372937 to 0.000372937
Heightened Def Con from 0.000372937 to 0.000372937
Heightened Def Con from 0.000372937 to 0.000372937
Heightened Def Con from 0.000372937 to 0.000372937
Heightened Def Con from 0.000372937 to 0.000372937
Heightened Def Con from 0.000372937 to 0.000372937
Heightened Def Con from 0.000372937 to 0.000372937
Heightened Def Con from 0.000372937 to 0.000372937
Heightened Def Con from 0.000372937 to 0.000372937
Heightened Def Con from 0.000372937 to 0.000372937
Heightened Def Con from 0.000372937 to 0.000372937
Heightened Def Con from 0.000372937 to 0.000372937
Heightened Def Con from 0.000372937 to 0.000372937
Heightened Def Con from 0.000372937 to 0.000372937
Heightened Def Con from 0.000372937 to 0.000372937
Heightened Def Con from 0.000372937 to 0.000372937
Heightened Def Con from 0.000372937 +to 0.000372937
Heightened Def Con from 0.000372937 +to 0.000372937
Heightened Def Con from 0.000372937 +to 0.000372937
Heightened Def Con from 0.000372937 +to 0.000372937
Heightened Def Con from 0.000372937 +to 0.000372937
Heightened Def Con from 0.000372937 +to 0.000372937
Heightened Def Con from 0.000372937 +to 0.000372937
Heightened Def Con from 0.000372937 +to 0.000372937
Heightened Def Con from 0.000372937 +to 0.000372937
Heightened Def Con from 0.000372937 to 0.000372937
Heightened Def Con from 0.000372937 to 0.000372937
Heightened Def Con from 0.000372937 to 0.000372937
Heightened Def Con from 0.000372937 to 0.000372937
Heightened Def Con from 0.000372937 to 0.000372937
Heightened Def Con from 0.000372937 to 0.000372937
Heightened Def Con from 0.000372937 to 0.000372937
Heightened Def Con from 0.000372937 ++to 0.000372937
Heightened Def Con from 0.000372937 +to 0.000372937
Heightened Def Con from 0.000372937 to 0.000372937
Heightened Def Con from 0.000372937 to 0.000372937
Heightened Def Con from 0.000372937 to 0.000372937
Heightened Def Con from 0.000372937 +to 0.000372937
Heightened Def Con from 0.000372937 +to 0.000372937
Heightened Def Con from 0.000372937 +to 0.000372937
Heightened Def Con from 0.000372937 to 0.000372937
Heightened Def Con from 0.000372937 to 0.000372937
Heightened Def Con from 0.000372937 +to 0.000372937
Heightened Def Con from 0.000372937 +to 0.000372937
Heightened Def Con from 0.000372937 +to 0.000372937
Heightened Def Con from 0.000372937 +to 0.000372937
Heightened Def Con from 0.000372937 to 0.000372937
Heightened Def Con from 0.000372937 to 0.000372937
Heightened Def Con from 0.000372937 to 0.000372937
Heightened Def Con from 0.000372937 +to 0.000372937
Heightened Def Con from 0.000372937 +to 0.000372937
Heightened Def Con from 0.000372937 +to 0.000372937
Heightened Def Con from 0.000372937 ++to 0.000372937
Heightened Def Con from 0.000372937 +to 0.000372937
Heightened Def Con from 0.000372937 +to 0.000372937
Heightened Def Con from 0.000372937 ++to 0.000372937
Heightened Def Con from 0.000372937 +++to 0.000372937
Heightened Def Con from 0.000372937 ++to 0.000372937
Heightened Def Con from 0.000372937 ++to 0.000372937
Heightened Def Con from 0.000372937 +to 0.000372937
Heightened Def Con from 0.000372937 to 0.000372937
Heightened Def Con from 0.000372937 to 0.000372937
Heightened Def Con from 0.000372937 ++to 0.000372937
Heightened Def Con from 0.000372937 +to 0.000372937
Heightened Def Con from 0.000372937 +to 0.000372937
Heightened Def Con from 0.000372937 +to 0.000372937
Heightened Def Con from 0.000372937 +to 0.000372937
Heightened Def Con from 0.000372937 to 0.000372937
Heightened Def Con from 0.000372937 to 0.000372937
Heightened Def Con from 0.000372937 to 0.000372937
Heightened Def Con from 0.000372937 to 0.000372937
Heightened Def Con from 0.000372937 to 0.000372937
Heightened Def Con from 0.000372937 to 0.000372937
Heightened Def Con from 0.000372937 to 0.000372937
Heightened Def Con from 0.000372937 to 0.000372937
Heightened Def Con from 0.000372937 ++to 0.000372937
Heightened Def Con from 0.000372937 +to 0.000372937
Heightened Def Con from 0.000372937 +to 0.000372937
Heightened Def Con from 0.000372937 +to 0.000372937
Heightened Def Con from 0.000372937 ++to 0.000372937
Heightened Def Con from 0.000372937 ++to 0.000372937
Heightened Def Con from 0.000372937 ++to 0.000372937
Heightened Def Con from 0.000372937 +to 0.000372937
Heightened Def Con from 0.000372937 +to 0.000372937
Heightened Def Con from 0.000372937 +to 0.000372937
Heightened Def Con from 0.000372937 to 0.000372937
Heightened Def Con from 0.000372937 to 0.000372937
Heightened Def Con from 0.000372937 to 0.000372937
Heightened Def Con from 0.000372937 to 0.000372937
Heightened Def Con from 0.000372937 to 0.000372937
Heightened Def Con from 0.000372937 to 0.000372937
Heightened Def Con from 0.000372937 to 0.000372937
Heightened Def Con from 0.000372937 to 0.000372937
Heightened Def Con from 0.000372937 to 0.000372937
Heightened Def Con from 0.000372937 to 0.000372937
Heightened Def Con from 0.000372937 to 0.000372937
Heightened Def Con from 0.000372937 to 0.000372937
Heightened Def Con from 0.000372937 to 0.000372937
Heightened Def Con from 0.000372937 to 0.000372937
Heightened Def Con from 0.000372937 to 0.000372937
Heightened Def Con from 0.000372937 to 0.000372937
Heightened Def Con from 0.000372937 to 0.000372937
Heightened Def Con from 0.000372937 to 0.000372937
Heightened Def Con from 0.000372937 to 0.000372937
Heightened Def Con from 0.000372937 to 0.000372937
Heightened Def Con from 0.000372937 to 0.000372937
Heightened Def Con from 0.000372937 to 0.000372937
Heightened Def Con from 0.000372937 to 0.000372937
Heightened Def Con from 0.000372937 to 0.000372937
Heightened Def Con from 0.000372937 to 0.000372937
Heightened Def Con from 0.000372937 to 0.000372937
Heightened Def Con from 0.000372937 to 0.000372937
Heightened Def Con from 0.000372937 to 0.000372937
Heightened Def Con from 0.000372937 to 0.000372937
Heightened Def Con from 0.000372937 to 0.000372937
Heightened Def Con from 0.000372937 to 0.000372937
Heightened Def Con from 0.000372937 to 0.000372937
Heightened Def Con from 0.000372937 to 0.000372937
Heightened Def Con from 0.000372937 to 0.000372937
Heightened Def Con from 0.000372937 to 0.000372937
Heightened Def Con from 0.000372937 to 0.000372937
Heightened Def Con from 0.000372937 to 0.000372937
Heightened Def Con from 0.000372937 to 0.000372937
Heightened Def Con from 0.000372937 to 0.000372937
Heightened Def Con from 0.000372937 to 0.000372937
Heightened Def Con from 0.000372937 to 0.000372937
Heightened Def Con from 0.000372937 to 0.000372937
Heightened Def Con from 0.000372937 to 0.000372937
Heightened Def Con from 0.000372937 to 0.000372937
Heightened Def Con from 0.000372937 to 0.000372937
Heightened Def Con from 0.000372937 to 0.000372937
Heightened Def Con from 0.000372937 to 0.000372937
Heightened Def Con from 0.000372937 to 0.000372937
Heightened Def Con from 0.000372937 to 0.000372937
Heightened Def Con from 0.000372937 to 0.000372937
Heightened Def Con from 0.000372937 to 0.000372937
Heightened Def Con from 0.000372937 +to 0.000372937
Heightened Def Con from 0.000372937 to 0.000372937
Heightened Def Con from 0.000372937 +++++++++++to 0.000372937
Heightened Def Con from 0.000372937 to 0.000372937
Heightened Def Con from 0.000373702 to 0.000373702
Heightened Def Con from 0.000373702 to 0.000373702
Heightened Def Con from 0.000373702 to 0.000373702
Heightened Def Con from 0.000373702 +to 0.000373702
Heightened Def Con from 0.000373702 to 0.000373702
Heightened Def Con from 0.000373702 to 0.000373702
Heightened Def Con from 0.000373702 to 0.000373702
Heightened Def Con from 0.000373702 ++to 0.000373702
Heightened Def Con from 0.000373702 +to 0.000373702
Heightened Def Con from 0.000373702 to 0.000373702
Heightened Def Con from 0.000373702 to 0.000373702
Heightened Def Con from 0.000373702 to 0.000373702
Heightened Def Con from 0.000373702 to 0.000373702
Heightened Def Con from 0.000373702 to 0.000373702
Heightened Def Con from 0.000373702 to 0.000373702
Heightened Def Con from 0.000373702 to 0.000373702
Heightened Def Con from 0.000373702 to 0.000373702
Heightened Def Con from 0.000373702 to 0.000373702
Heightened Def Con from 0.000373702 to 0.000373702
Heightened Def Con from 0.000373702 to 0.000373702
Heightened Def Con from 0.000373702 to 0.000373702
Heightened Def Con from 0.000373702 to 0.000373702
Heightened Def Con from 0.000373702 to 0.000373702
Heightened Def Con from 0.000373702 to 0.000373702
Heightened Def Con from 0.000373702 to 0.000373702
Heightened Def Con from 0.000373702 ++to 0.000373702
Heightened Def Con from 0.000373702 to 0.000373702
Heightened Def Con from 0.000373702 to 0.000373702
Heightened Def Con from 0.000373702 to 0.000373702
Heightened Def Con from 0.000373702 to 0.000373702
Heightened Def Con from 0.000373702 to 0.000373702
Heightened Def Con from 0.000373702 to 0.000373702
Heightened Def Con from 0.000373702 to 0.000373702
Heightened Def Con from 0.000373702 +to 0.000373702
Heightened Def Con from 0.000373702 +to 0.000373702
Heightened Def Con from 0.000373702 to 0.000373702
Heightened Def Con from 0.000373702 to 0.000373702
Heightened Def Con from 0.000373702 to 0.000373702
Heightened Def Con from 0.000373702 to 0.000373702
Heightened Def Con from 0.000373702 to 0.000373702
Heightened Def Con from 0.000373702 to 0.000373702
Heightened Def Con from 0.000373702 to 0.000373702
Heightened Def Con from 0.000373702 to 0.000373702
Heightened Def Con from 0.000373702 to 0.000373702
Heightened Def Con from 0.000373702 +to 0.000373702
Heightened Def Con from 0.000373702 to 0.000373702
Heightened Def Con from 0.000373702 to 0.000373702
Heightened Def Con from 0.000373702 to 0.000373702
Heightened Def Con from 0.000373702 to 0.000373702
Heightened Def Con from 0.000373702 to 0.000373702
Heightened Def Con from 0.000373702 to 0.000373702
Heightened Def Con from 0.000373702 to 0.000373702
Heightened Def Con from 0.000373702 to 0.000373702
Heightened Def Con from 0.000373702 to 0.000373702
Heightened Def Con from 0.000373702 to 0.000373702
Heightened Def Con from 0.000373702 to 0.000373702
Heightened Def Con from 0.000373702 to 0.000373702
Heightened Def Con from 0.000373702 to 0.000373702
Heightened Def Con from 0.000373702 to 0.000373702
Heightened Def Con from 0.000373702 to 0.000373702
Heightened Def Con from 0.000373702 to 0.000373702
Heightened Def Con from 0.000373702 to 0.000373702
Heightened Def Con from 0.000373702 to 0.000373702
Heightened Def Con from 0.000373702 to 0.000373702
Heightened Def Con from 0.000373702 to 0.000373702
Heightened Def Con from 0.000373702 to 0.000373702
Heightened Def Con from 0.000373702 to 0.000373702
Heightened Def Con from 0.000373702 to 0.000373702
Heightened Def Con from 0.000373702 to 0.000373702
Heightened Def Con from 0.000373702 to 0.000373702
Heightened Def Con from 0.000373702 to 0.000373702
Heightened Def Con from 0.000373702 to 0.000373702
Heightened Def Con from 0.000373702 to 0.000373702
Heightened Def Con from 0.000373702 to 0.000373702
Heightened Def Con from 0.000373702 to 0.000373702
Heightened Def Con from 0.000373702 to 0.000373702
Heightened Def Con from 0.000373702 to 0.000373702
Heightened Def Con from 0.000373702 to 0.000373702
Heightened Def Con from 0.000373702 to 0.000373702
Heightened Def Con from 0.000373702 to 0.000373702
Heightened Def Con from 0.000373702 to 0.000373702
Heightened Def Con from 0.000373702 to 0.000373702
Heightened Def Con from 0.000373702 to 0.000373702
Heightened Def Con from 0.000373702 to 0.000373702
Heightened Def Con from 0.000373702 to 0.000373702
Heightened Def Con from 0.000373702 to 0.000373702
Heightened Def Con from 0.000373702 to 0.000373702
Heightened Def Con from 0.000373702 to 0.000373702
Heightened Def Con from 0.000373702 to 0.000373702
Heightened Def Con from 0.000373702 to 0.000373702
Heightened Def Con from 0.000373702 to 0.000373702
Heightened Def Con from 0.000373702 to 0.000373702
Heightened Def Con from 0.000373702 to 0.000373702
Heightened Def Con from 0.000373702 to 0.000373702
Heightened Def Con from 0.000373702 to 0.000373702
Heightened Def Con from 0.000373702 to 0.000373702
Heightened Def Con from 0.000373702 to 0.000373702
Heightened Def Con from 0.000373702 to 0.000373702
Heightened Def Con from 0.000373702 to 0.000373702
Heightened Def Con from 0.000373702 to 0.000373702
Heightened Def Con from 0.000373702 to 0.000373702
Heightened Def Con from 0.000373702 to 0.000373702
Heightened Def Con from 0.000373702 to 0.000373702
Heightened Def Con from 0.000373702 to 0.000373702
Heightened Def Con from 0.000373702 +to 0.000373702
Heightened Def Con from 0.000373702 +to 0.000373702
Heightened Def Con from 0.000373702 to 0.000373702
Heightened Def Con from 0.000373702 to 0.000373702
Heightened Def Con from 0.000373702 to 0.000373702
Heightened Def Con from 0.000373702 to 0.000373702
Heightened Def Con from 0.000373702 to 0.000373702
Heightened Def Con from 0.000373702 to 0.000373702
Heightened Def Con from 0.000373702 to 0.000373702
Heightened Def Con from 0.000373702 to 0.000373702
Heightened Def Con from 0.000373702 to 0.000373702
Heightened Def Con from 0.000373702 to 0.000373702
Heightened Def Con from 0.000373702 to 0.000373702
Heightened Def Con from 0.000373702 to 0.000373702
Heightened Def Con from 0.000373702 to 0.000373702
Heightened Def Con from 0.000375224 to 0.000375224
Heightened Def Con from 0.000375224 to 0.000375224
Heightened Def Con from 0.000375224 to 0.000375224
Heightened Def Con from 0.000375224 to 0.000375224
Heightened Def Con from 0.000375224 to 0.000375224
Heightened Def Con from 0.000375224 to 0.000375224
Heightened Def Con from 0.000375224 to 0.000375224
Heightened Def Con from 0.000375224 to 0.000375224
Heightened Def Con from 0.000375224 to 0.000375224
Heightened Def Con from 0.000375224 to 0.000375224
Heightened Def Con from 0.000375224 to 0.000375224
Heightened Def Con from 0.000375981 to 0.000375981
Heightened Def Con from 0.000375981 to 0.000375981
Heightened Def Con from 0.000375981 to 0.000375981
Heightened Def Con from 0.000375981 to 0.000375981
Heightened Def Con from 0.000375981 to 0.000375981
Heightened Def Con from 0.000375981 to 0.000375981
Heightened Def Con from 0.000375981 to 0.000375981
Heightened Def Con from 0.000375981 to 0.000375981
Heightened Def Con from 0.000375981 to 0.000375981
Heightened Def Con from 0.000375981 to 0.000375981
Heightened Def Con from 0.000375981 to 0.000375981
Heightened Def Con from 0.000375981 to 0.000375981
Heightened Def Con from 0.000375981 to 0.000375981
Heightened Def Con from 0.000375981 to 0.000375981
Heightened Def Con from 0.000375981 to 0.000375981
Heightened Def Con from 0.000375981 to 0.000375981
Heightened Def Con from 0.000375981 to 0.000375981
Heightened Def Con from 0.000375981 +to 0.000375981
Heightened Def Con from 0.000375981 to 0.000375981
Heightened Def Con from 0.000375981 to 0.000375981
Heightened Def Con from 0.000375981 to 0.000375981
Heightened Def Con from 0.000375981 to 0.000375981
Heightened Def Con from 0.000375981 to 0.000375981
Heightened Def Con from 0.000375981 to 0.000375981
Heightened Def Con from 0.000375981 to 0.000375981
Heightened Def Con from 0.000375981 to 0.000375981
Heightened Def Con from 0.000375981 to 0.000375981
Heightened Def Con from 0.000375981 to 0.000375981
Heightened Def Con from 0.000375981 to 0.000375981
Heightened Def Con from 0.000375981 to 0.000375981
Heightened Def Con from 0.000375981 to 0.000375981
Heightened Def Con from 0.000375981 to 0.000375981
Heightened Def Con from 0.000375981 to 0.000375981
Heightened Def Con from 0.000375981 to 0.000375981
Heightened Def Con from 0.000375981 to 0.000375981
Heightened Def Con from 0.000375981 to 0.000375981
Heightened Def Con from 0.000375981 to 0.000375981
Heightened Def Con from 0.000375981 to 0.000375981
Heightened Def Con from 0.000375981 to 0.000375981
Heightened Def Con from 0.000375981 to 0.000375981
Heightened Def Con from 0.000375981 to 0.000375981
Heightened Def Con from 0.000375981 to 0.000375981
Heightened Def Con from 0.000375981 to 0.000375981
Heightened Def Con from 0.000375981 to 0.000375981
Heightened Def Con from 0.000375981 to 0.000375981
Heightened Def Con from 0.000375981 to 0.000375981
Heightened Def Con from 0.000375981 to 0.000375981
Heightened Def Con from 0.000375981 to 0.000375981
Heightened Def Con from 0.000375981 to 0.000375981
Heightened Def Con from 0.000375981 to 0.000375981
Heightened Def Con from 0.000375981 to 0.000375981
Heightened Def Con from 0.000375981 to 0.000375981
Heightened Def Con from 0.000375981 to 0.000375981
Heightened Def Con from 0.000375981 to 0.000375981
Heightened Def Con from 0.000375981 to 0.000375981
Heightened Def Con from 0.000375981 to 0.000375981
Heightened Def Con from 0.000375981 to 0.000375981
Heightened Def Con from 0.000375981 to 0.000375981
Heightened Def Con from 0.000375981 to 0.000375981
Heightened Def Con from 0.000375981 to 0.000375981
Heightened Def Con from 0.000375981 to 0.000375981
Heightened Def Con from 0.000375981 to 0.000375981
Heightened Def Con from 0.000375981 to 0.000375981
Heightened Def Con from 0.000375981 to 0.000375981
Heightened Def Con from 0.000375981 to 0.000375981
Heightened Def Con from 0.000375981 +to 0.000375981
Heightened Def Con from 0.000375981 to 0.000375981
Heightened Def Con from 0.000375981 to 0.000375981
Heightened Def Con from 0.000375981 to 0.000375981
Heightened Def Con from 0.000375981 to 0.000375981
Heightened Def Con from 0.000375981 to 0.000375981
Heightened Def Con from 0.000375981 to 0.000375981
Heightened Def Con from 0.000375981 to 0.000375981
Heightened Def Con from 0.000375981 to 0.000375981
Heightened Def Con from 0.000375981 to 0.000375981
Heightened Def Con from 0.000375981 to 0.000375981
Heightened Def Con from 0.000375981 to 0.000375981
Heightened Def Con from 0.000375981 to 0.000375981
Heightened Def Con from 0.000375981 to 0.000375981
Heightened Def Con from 0.000375981 to 0.000375981
Heightened Def Con from 0.000375981 to 0.000375981
Heightened Def Con from 0.000375981 +to 0.000375981
Heightened Def Con from 0.000375981 to 0.000375981
Heightened Def Con from 0.000375981 to 0.000375981
Heightened Def Con from 0.000375981 to 0.000375981
Heightened Def Con from 0.000375981 to 0.000375981
Heightened Def Con from 0.000375981 to 0.000375981
Heightened Def Con from 0.000375981 +to 0.000375981
Heightened Def Con from 0.000375981 +to 0.000375981
Heightened Def Con from 0.000375981 to 0.000375981
Heightened Def Con from 0.000375981 to 0.000375981
Heightened Def Con from 0.000375981 to 0.000375981
Heightened Def Con from 0.000375981 to 0.000375981
Heightened Def Con from 0.000375981 to 0.000375981
Heightened Def Con from 0.000375981 to 0.000375981
Heightened Def Con from 0.000375981 to 0.000375981
Heightened Def Con from 0.000375981 +++++++++++to 0.000375981
Heightened Def Con from 0.000375981 to 0.000375981
Heightened Def Con from 0.000377655 to 0.000377656
Heightened Def Con from 0.000378411 to 0.000378412
Heightened Def Con from 0.000379164 to 0.000379165
Heightened Def Con from 0.000379918 to 0.000379919
Heightened Def Con from 0.000380664 to 0.000380665
Heightened Def Con from 0.000381256 to 0.000381265
Heightened Def Con from 0.000381412 to 0.000381413
Heightened Def Con from 0.000382159 to 0.00038216
Heightened Def Con from 0.000384394 to 0.000384397
Heightened Def Con from 0.00038497 to 0.000384971
Heightened Def Con from 0.000387176 to 0.000387177
Heightened Def Con from 0.000387908 to 0.000387909
Heightened Def Con from 0.000390102 to 0.000390111
Heightened Def Con from 0.000391556 to 0.000391565
Heightened Def Con from 0.000392282 to 0.000392282
Heightened Def Con from 0.000399476 to 0.000399477
Heightened Def Con from 0.000400189 to 0.000400189
Heightened Def Con from 0.000404437 to 0.000404438
Heightened Def Con from 0.000404438 to 0.000404439
Heightened Def Con from 0.000405844 to 0.000405845
Heightened Def Con from 0.000410713 to 0.000410714
Heightened Def Con from 0.000411402 to 0.000411403
Heightened Def Con from 0.000420234 to 0.000420234
Heightened Def Con from 0.000420234 to 0.000420234
Heightened Def Con from 0.000420234 to 0.000420234
Heightened Def Con from 0.000421569 to 0.00042157
Heightened Def Con from 0.000422236 to 0.000422236
Heightened Def Con from 0.000426213 to 0.000426214
Heightened Def Con from 0.00042819 to 0.000428191
Heightened Def Con from 0.000432112 to 0.000432113
Heightened Def Con from 0.000445463 to 0.000445464
Heightened Def Con from 0.000744858 to 0.000744868
Heightened Def Con from 0.00075516 to 0.00075517
Heightened Def Con from 0.000776257 to 0.000776267
Heightened Def Con from 0.000776745 to 0.000776755
Heightened Def Con from 0.000791476 to 0.000791486
Heightened Def Con from 0.000796385 to 0.000796395
Heightened Def Con from 0.000810611 to 0.000810621
Heightened Def Con from 0.000812571 to 0.000812581
Heightened Def Con from 0.000825344 to 0.000825354
Heightened Def Con from 0.000830281 to 0.000830291
Heightened Def Con from 0.000851481 to 0.000851491
Heightened Def Con from 0.000865798 to 0.000865808
Heightened Def Con from 0.000866785 to 0.000866795
Heightened Def Con from 0.000871744 to 0.000871754
Heightened Def Con from 0.00087766 to 0.00087767
Heightened Def Con from 0.000884091 to 0.000884101
Heightened Def Con from 0.000885582 to 0.000885592
Heightened Def Con from 0.000892022 to 0.000892032
Heightened Def Con from 0.000896484 to 0.000896494
Heightened Def Con from 0.000899457 to 0.000899467
Heightened Def Con from 0.00089995 to 0.00089996
Heightened Def Con from 0.000930719 to 0.000930729
Heightened Def Con from 0.000933698 to 0.000933708
Heightened Def Con from 0.000940163 to 0.000940173
Heightened Def Con from 0.000943645 to 0.000943655
Heightened Def Con from 0.000944144 to 0.000944145
Heightened Def Con from 0.000956087 to 0.000956097
Heightened Def Con from 0.000961069 to 0.000961079
Heightened Def Con from 0.00096157 to 0.00096158
Heightened Def Con from 0.000962067 to 0.000962077
Heightened Def Con from 0.000963561 to 0.000963571
Heightened Def Con from 0.000964558 to 0.000964568
Heightened Def Con from 0.000965056 to 0.000965066
Heightened Def Con from 0.000966052 to 0.000966053
Heightened Def Con from 0.000967043 to 0.000967053
Heightened Def Con from 0.000967543 to 0.000967553
Heightened Def Con from 0.000969041 to 0.000969051
Heightened Def Con from 0.000972037 to 0.000972047
Heightened Def Con from 0.000973036 to 0.000973046
Heightened Def Con from 0.000976524 to 0.000976534
Heightened Def Con from 0.00097952 to 0.00097953
Heightened Def Con from 0.00098052 to 0.00098053
Heightened Def Con from 0.000983523 to 0.000983533
Heightened Def Con from 0.000995528 to 0.000995538
Heightened Def Con from 0.000999552 to 0.000999562
Heightened Def Con from 0.00100006 to 0.00100006
Heightened Def Con from 0.00100056 to 0.00100057
Heightened Def Con from 0.00100408 to 0.00100409
Heightened Def Con from 0.00101061 to 0.00101062
Heightened Def Con from 0.00101161 to 0.00101162
Heightened Def Con from 0.00101413 to 0.00101414
Heightened Def Con from 0.00102373 to 0.00102374
Heightened Def Con from 0.00102423 to 0.00102424
Heightened Def Con from 0.00102525 to 0.00102526
Heightened Def Con from 0.00103183 to 0.00103184
Heightened Def Con from 0.00103233 to 0.00103234
Heightened Def Con from 0.00103284 to 0.00103284
Heightened Def Con from 0.00103842 to 0.00103842
Heightened Def Con from 0.00104606 to 0.00104607
Heightened Def Con from 0.00104657 to 0.00104658
Heightened Def Con from 0.00105065 to 0.00105066
Heightened Def Con from 0.00105116 to 0.00105117
Heightened Def Con from 0.00105218 to 0.00105219
Heightened Def Con from 0.00105269 to 0.00105269
Heightened Def Con from 0.00105525 to 0.00105525
Heightened Def Con from 0.00105576 to 0.00105577
Heightened Def Con from 0.00105729 to 0.0010573
Heightened Def Con from 0.00105831 to 0.00105832
Heightened Def Con from 0.00105883 to 0.00105883
Heightened Def Con from 0.0010619 to 0.0010619
Heightened Def Con from 0.00106345 to 0.00106345
Heightened Def Con from 0.00106396 to 0.00106396
Heightened Def Con from 0.00107064 to 0.00107065
Heightened Def Con from 0.00107116 to 0.00107117
Heightened Def Con from 0.00107167 to 0.00107168
Heightened Def Con from 0.00107322 to 0.00107322
Heightened Def Con from 0.00107836 to 0.00107837
Heightened Def Con from 0.00109076 to 0.00109077
Heightened Def Con from 0.00110009 to 0.00110009
Heightened Def Con from 0.00112039 to 0.0011204
Heightened Def Con from 0.00112822 to 0.00112822
Heightened Def Con from 0.00112874 to 0.00112874
Heightened Def Con from 0.00116129 to 0.0011613
Heightened Def Con from 0.00118459 to 0.0011846
Heightened Def Con from 0.00118778 to 0.00118778
Heightened Def Con from 0.00119097 to 0.00119097
Heightened Def Con from 0.0011947 to 0.0011947
Heightened Def Con from 0.00119895 to 0.00119895
Heightened Def Con from 0.00120376 to 0.00120376
Heightened Def Con from 0.00120696 to 0.00120696
Heightened Def Con from 0.00121981 to 0.00121981
Heightened Def Con from 0.00122035 to 0.00122036
Heightened Def Con from 0.00122088 to 0.00122088
Heightened Def Con from 0.00122142 to 0.00122142
Heightened Def Con from 0.0012225 to 0.00122251
Heightened Def Con from 0.00122357 to 0.00122357
Heightened Def Con from 0.00122411 to 0.00122411
Heightened Def Con from 0.00122625 to 0.00122626
Heightened Def Con from 0.00122732 to 0.00122733
Heightened Def Con from 0.0012284 to 0.0012284
Heightened Def Con from 0.00123001 to 0.00123001
Heightened Def Con from 0.00123377 to 0.00123378
Heightened Def Con from 0.00123967 to 0.00123968
Heightened Def Con from 0.00124128 to 0.00124129
Heightened Def Con from 0.00124236 to 0.00124236
Heightened Def Con from 0.00124343 to 0.00124343
Heightened Def Con from 0.00124827 to 0.00124827
Heightened Def Con from 0.00125207 to 0.00125207
Heightened Def Con from 0.00125476 to 0.00125476
Heightened Def Con from 0.0012553 to 0.0012553
Heightened Def Con from 0.00125907 to 0.00125907
Heightened Def Con from 0.00126447 to 0.00126447
Heightened Def Con from 0.00126556 to 0.00126556
Heightened Def Con from 0.00126988 to 0.00126989
Heightened Def Con from 0.00128014 to 0.00128016
Heightened Def Con from 0.00128123 to 0.00128123
Heightened Def Con from 0.00128177 to 0.00128178
Heightened Def Con from 0.00129699 to 0.00129699
Heightened Def Con from 0.00130026 to 0.00130026
Heightened Def Con from 0.00130244 to 0.00130244
Heightened Def Con from 0.00131228 to 0.00131229
Heightened Def Con from 0.00132101 to 0.00132102
Heightened Def Con from 0.0013221 to 0.00132212
Heightened Def Con from 0.00132265 to 0.00132265
Heightened Def Con from 0.0013232 to 0.00132321
Heightened Def Con from 0.00133965 to 0.00133965
Heightened Def Con from 0.00134904 to 0.00134904
Heightened Def Con from 0.00136229 to 0.00136229
Heightened Def Con from 0.00136451 to 0.00136451
Heightened Def Con from 0.0013695 to 0.00136951
Heightened Def Con from 0.00137949 to 0.0013795
Heightened Def Con from 0.00138227 to 0.00138227
Heightened Def Con from 0.0013973 to 0.0013973
Heightened Def Con from 0.0014219 to 0.0014219
Heightened Def Con from 0.00143367 to 0.00143367
Heightened Def Con from 0.00143705 to 0.00143705
Heightened Def Con from 0.00144212 to 0.00144213
Heightened Def Con from 0.00144945 to 0.00144945
Heightened Def Con from 0.0014534 to 0.0014534
Heightened Def Con from 0.00147431 to 0.00147431
Heightened Def Con from 0.00147771 to 0.00147772
Heightened Def Con from 0.00147828 to 0.00147829
Heightened Def Con from 0.00148734 to 0.00148735
Heightened Def Con from 0.00148847 to 0.00148847
Heightened Def Con from 0.00149642 to 0.00149642
Heightened Def Con from 0.00151291 to 0.00151291
Heightened Def Con from 0.00151348 to 0.00151348
Heightened Def Con from 0.00151405 to 0.00151406
Heightened Def Con from 0.00152144 to 0.00152144
Heightened Def Con from 0.00152429 to 0.00152429
Heightened Def Con from 0.00152827 to 0.00152827
Heightened Def Con from 0.0015334 to 0.0015334
Heightened Def Con from 0.00153568 to 0.00153568
Heightened Def Con from 0.00156948 to 0.00156949
Heightened Def Con from 0.00159944 to 0.00159944
Heightened Def Con from 0.00161333 to 0.00161333
Heightened Def Con from 0.00162261 to 0.00162261
Heightened Def Con from 0.00163249 to 0.0016325
Heightened Def Con from 0.00163483 to 0.00163483
Heightened Def Con from 0.00164006 to 0.00164006
Heightened Def Con from 0.00165349 to 0.0016535
Heightened Def Con from 0.0016669 to 0.0016669
Heightened Def Con from 0.00166924 to 0.00166924
Heightened Def Con from 0.00166982 to 0.00166984
Heightened Def Con from 0.00167449 to 0.00167449
Heightened Def Con from 0.00167741 to 0.00167741
Heightened Def Con from 0.00167916 to 0.00167916
Heightened Def Con from 0.00168792 to 0.00168792
Heightened Def Con from 0.00168909 to 0.0016891
Heightened Def Con from 0.00169084 to 0.00169084
Heightened Def Con from 0.00171017 to 0.00171019
Heightened Def Con from 0.00171252 to 0.00171252
Heightened Def Con from 0.00171369 to 0.00171369
Heightened Def Con from 0.00171606 to 0.00171607
Heightened Def Con from 0.00172016 to 0.00172016
Heightened Def Con from 0.00172193 to 0.00172193
Heightened Def Con from 0.0017231 to 0.00172311
Heightened Def Con from 0.00172369 to 0.00172369
Heightened Def Con from 0.00172839 to 0.00172839
Heightened Def Con from 0.00172898 to 0.00172898
Heightened Def Con from 0.00173133 to 0.00173133
Heightened Def Con from 0.0017431 to 0.0017431
Heightened Def Con from 0.00176018 to 0.00176018
Heightened Def Con from 0.00176195 to 0.00176196
Heightened Def Con from 0.00176607 to 0.00176607
Heightened Def Con from 0.00177137 to 0.00177137
Heightened Def Con from 0.00178142 to 0.00178142
Heightened Def Con from 0.00178201 to 0.00178203
Heightened Def Con from 0.0017832 to 0.00178321
Heightened Def Con from 0.00179682 to 0.00179684
Heightened Def Con from 0.00179742 to 0.00179742
Heightened Def Con from 0.00179861 to 0.00179861
Heightened Def Con from 0.00180631 to 0.00180633
Heightened Def Con from 0.0018081 to 0.00180811
Heightened Def Con from 0.00180929 to 0.00180929
Heightened Def Con from 0.00182479 to 0.00182479
Heightened Def Con from 0.00182896 to 0.00182896
Heightened Def Con from 0.00185343 to 0.00185343
Heightened Def Con from 0.00186121 to 0.00186122
Heightened Def Con from 0.00188578 to 0.00188578
Heightened Def Con from 0.0018913 to 0.00189131
Heightened Def Con from 0.00189136 to 0.00189136
Heightened Def Con from 0.00189142 to 0.00189142
Heightened Def Con from 0.00192716 to 0.00192716
Heightened Def Con from 0.00192756 to 0.00192756
Heightened Def Con from 0.00192762 to 0.00192763
Heightened Def Con from 0.00196314 to 0.00196314
Heightened Def Con from 0.0019632 to 0.00196321
Heightened Def Con from 0.0019847 to 0.0019847
Heightened Def Con from 0.00198517 to 0.00198517
Heightened Def Con from 0.00200699 to 0.002007
Heightened Def Con from 0.00201158 to 0.00201158
Heightened Def Con from 0.00207002 to 0.00207002
Heightened Def Con from 0.00234936 to 0.00234938
Heightened Def Con from 0.00235334 to 0.00235335
Heightened Def Con from 0.0025613 to 0.0025613
Heightened Def Con from 0.00256177 to 0.00256177
Heightened Def Con from 0.00274562 to 0.00274562
Heightened Def Con from 0.00274608 to 0.00274609
Heightened Def Con from 0.00291931 to 0.00291931
Heightened Def Con from 0.00308811 to 0.00308811
Heightened Def Con from 0.00308834 to 0.00308834
Heightened Def Con from 0.00308881 to 0.00308881
Heightened Def Con from 0.0032565 to 0.00325651
Heightened Def Con from 0.00325697 to 0.00325697
Heightened Def Con from 0.00325709 to 0.00325709
Heightened Def Con from 0.0034249 to 0.0034249
Heightened Def Con from 0.00342537 to 0.00342537
Heightened Def Con from 0.00342548 to 0.00342549
Heightened Def Con from 0.00359338 to 0.00359338
Heightened Def Con from 0.00359385 to 0.00359385
Heightened Def Con from 0.00375858 to 0.00375858
Heightened Def Con from 0.00375918 to 0.00375919
Heightened Def Con from 0.00376196 to 0.00376196
Heightened Def Con from 0.00376243 to 0.00376243
Heightened Def Con from 0.00376255 to 0.00376255
Heightened Def Con from 0.00392889 to 0.00392891
Heightened Def Con from 0.00393046 to 0.00393046
Heightened Def Con from 0.004099 to 0.00409901
Heightened Def Con from 0.00409947 to 0.00409948
Heightened Def Con from 0.00409959 to 0.00409959
Heightened Def Con from 0.00426523 to 0.00426524
Heightened Def Con from 0.00426644 to 0.00426645
Heightened Def Con from 0.00426739 to 0.00426739
Heightened Def Con from 0.00426786 to 0.00426786
Heightened Def Con from 0.0044359 to 0.0044359
Heightened Def Con from 0.00443636 to 0.00443637
Heightened Def Con from 0.00443648 to 0.00443648
Heightened Def Con from 0.00460437 to 0.00460437
Heightened Def Con from 0.00460455 to 0.00460455
Heightened Def Con from 0.00477297 to 0.00477297
Heightened Def Con from 0.00500457 to 0.00500458
Heightened Def Con from 0.00501156 to 0.00501156
Heightened Def Con from 0.00502557 to 0.00502557
Heightened Def Con from 0.00502895 to 0.00502896
Heightened Def Con from 0.00502942 to 0.00502943
Heightened Def Con from 0.00502954 to 0.00502954
Heightened Def Con from 0.00504691 to 0.00504691
Heightened Def Con from 0.00508367 to 0.00508367
Heightened Def Con from 0.00510182 to 0.00510182
Heightened Def Con from 0.00510193 to 0.00510193
Heightened Def Con from 0.00510205 to 0.00510205
Heightened Def Con from 0.00511823 to 0.00511824
Heightened Def Con from 0.0051203 to 0.0051203
Heightened Def Con from 0.00513197 to 0.00513199
Heightened Def Con from 0.005139 to 0.00513901
Heightened Def Con from 0.00515549 to 0.0051555
Heightened Def Con from 0.00515555 to 0.00515555
Heightened Def Con from 0.00596093 to 0.00596093
Heightened Def Con from 0.00596371 to 0.00596371
Heightened Def Con from 0.00596383 to 0.00596384
Heightened Def Con from 0.00596418 to 0.00596418
Heightened Def Con from 0.00613232 to 0.00613232
Heightened Def Con from 0.00613691 to 0.00613692
Heightened Def Con from 0.00613738 to 0.00613738
Heightened Def Con from 0.00630622 to 0.00630622
Heightened Def Con from 0.00647396 to 0.00647397
Heightened Def Con from 0.00664221 to 0.00664221
Heightened Def Con from 0.00681079 to 0.0068108
Heightened Def Con from 0.00697917 to 0.00697918
Heightened Def Con from 0.00697923 to 0.00697923
Heightened Def Con from 0.00714257 to 0.00714258
Heightened Def Con from 0.0071456 to 0.00714561
Heightened Def Con from 0.00714776 to 0.00714776
Heightened Def Con from 0.00731621 to 0.00731621
Heightened Def Con from 0.00731668 to 0.00731668
Heightened Def Con from 0.0073168 to 0.0073168
Heightened Def Con from 0.00748469 to 0.00748469
Heightened Def Con from 0.00748515 to 0.00748516
Heightened Def Con from 0.00764852 to 0.00764854
Heightened Def Con from 0.00765311 to 0.00765311
Heightened Def Con from 0.00782153 to 0.00782153
Heightened Def Con from 0.00799009 to 0.0079901
Heightened Def Con from 0.00799056 to 0.00799057
Heightened Def Con from 0.00799068 to 0.00799068
Heightened Def Con from 0.00815859 to 0.00815859
Heightened Def Con from 0.0083269 to 0.0083269
Heightened Def Con from 0.00832701 to 0.00832701
Heightened Def Con from 0.00849549 to 0.00849549
Heightened Def Con from 0.00849595 to 0.00849596
Heightened Def Con from 0.00849607 to 0.00849607
Heightened Def Con from 0.00866386 to 0.00866386
Heightened Def Con from 0.00900079 to 0.00900079
Heightened Def Con from 0.00916935 to 0.00916935
Heightened Def Con from 0.00917005 to 0.00917005
Heightened Def Con from 0.00933803 to 0.00933804
Heightened Def Con from 0.00950662 to 0.00950662
Heightened Def Con from 0.00950709 to 0.00950709
Heightened Def Con from 0.0095072 to 0.00950721
Heightened Def Con from 0.00967493 to 0.00967493
Heightened Def Con from 0.0096751 to 0.0096751
Heightened Def Con from 0.00984345 to 0.00984345
Heightened Def Con from 0.00984392 to 0.00984392
Heightened Def Con from 0.00984404 to 0.00984404
Heightened Def Con from 0.0100073 to 0.0100073
Heightened Def Con from 0.0100118 to 0.0100118
Heightened Def Con from 0.0101805 to 0.0101805
Heightened Def Con from 0.010181 to 0.010181
Heightened Def Con from 0.0101811 to 0.0101811
Heightened Def Con from 0.0103494 to 0.0103494
Heightened Def Con from 0.0103496 to 0.0103496
Heightened Def Con from 0.0103497 to 0.0103497
Heightened Def Con from 0.0105142 to 0.0105142
Heightened Def Con from 0.0105176 to 0.0105176
Heightened Def Con from 0.0106864 to 0.0106864
Heightened Def Con from 0.010855 to 0.010855
Heightened Def Con from 0.0108551 to 0.0108551
Heightened Def Con from 0.0110209 to 0.0110209
Heightened Def Con from 0.0110231 to 0.0110231
Heightened Def Con from 0.0111917 to 0.0111917
Heightened Def Con from 0.0111917 to 0.0111917
Heightened Def Con from 0.0113602 to 0.0113602
Heightened Def Con from 0.0116955 to 0.0116955
Heightened Def Con from 0.0116976 to 0.0116976
Heightened Def Con from 0.0116977 to 0.0116977
Heightened Def Con from 0.012708 to 0.012708
Heightened Def Con from 0.0127085 to 0.0127085
Heightened Def Con from 0.0127086 to 0.0127086
Heightened Def Con from 0.0128769 to 0.0128769
Heightened Def Con from 0.012877 to 0.012877
Heightened Def Con from 0.0130447 to 0.0130447
Heightened Def Con from 0.0130449 to 0.0130449
Heightened Def Con from 0.0132133 to 0.0132133
Heightened Def Con from 0.0133818 to 0.0133819
Heightened Def Con from 0.0133822 to 0.0133822
Heightened Def Con from 0.0135502 to 0.0135502
Heightened Def Con from 0.0135504 to 0.0135504
Heightened Def Con from 0.0137187 to 0.0137187
Heightened Def Con from 0.0138872 to 0.0138872
Heightened Def Con from 0.0140556 to 0.0140556
Heightened Def Con from 0.0142242 to 0.0142242
Heightened Def Con from 0.0143924 to 0.0143924
Heightened Def Con from 0.0147295 to 0.0147295
Heightened Def Con from 0.0147296 to 0.0147296
Heightened Def Con from 0.0147298 to 0.0147298
Heightened Def Con from 0.0150664 to 0.0150664
Heightened Def Con from 0.0152347 to 0.0152347
Heightened Def Con from 0.0152353 to 0.0152353
Heightened Def Con from 0.0153979 to 0.0153979
Heightened Def Con from 0.0154029 to 0.0154029
Heightened Def Con from 0.015403 to 0.015403
Heightened Def Con from 0.0154037 to 0.0154037
Heightened Def Con from 0.0157399 to 0.0157399
Heightened Def Con from 0.0160764 to 0.0160764
Heightened Def Con from 0.0162447 to 0.0162447
Heightened Def Con from 0.0167497 to 0.0167497
Heightened Def Con from 0.0167503 to 0.0167503
Heightened Def Con from 0.0169182 to 0.0169182
Heightened Def Con from 0.0172546 to 0.0172546
Heightened Def Con from 0.0172547 to 0.0172547
Heightened Def Con from 0.0174231 to 0.0174231
Heightened Def Con from 0.0174231 to 0.0174231
Heightened Def Con from 0.0175915 to 0.0175915
Heightened Def Con from 0.017592 to 0.017592
Heightened Def Con from 0.0180965 to 0.0180965
Heightened Def Con from 0.0182648 to 0.0182648
Heightened Def Con from 0.0184285 to 0.0184285
Heightened Def Con from 0.0186012 to 0.0186012
Heightened Def Con from 0.0186012 to 0.0186012
Heightened Def Con from 0.0187697 to 0.0187697
Heightened Def Con from 0.0192736 to 0.0192736
Heightened Def Con from 0.0192746 to 0.0192746
Heightened Def Con from 0.019275 to 0.019275
Heightened Def Con from 0.0192752 to 0.0192752
Heightened Def Con from 0.0194407 to 0.0194407
Heightened Def Con from 0.0194433 to 0.0194433
Heightened Def Con from 0.0196091 to 0.0196091
Heightened Def Con from 0.0197796 to 0.0197796
Heightened Def Con from 0.0199458 to 0.0199458
Heightened Def Con from 0.0199479 to 0.0199479
Heightened Def Con from 0.0201117 to 0.0201117
Heightened Def Con from 0.0201163 to 0.0201163
Heightened Def Con from 0.0202845 to 0.0202845
Heightened Def Con from 0.0202845 to 0.0202845
Heightened Def Con from 0.0206213 to 0.0206213
Heightened Def Con from 0.0206217 to 0.0206217
Heightened Def Con from 0.0206219 to 0.0206219
Heightened Def Con from 0.0207896 to 0.0207896
Heightened Def Con from 0.0209579 to 0.0209579
Heightened Def Con from 0.0209584 to 0.0209584
Heightened Def Con from 0.0209585 to 0.0209585
Heightened Def Con from 0.0214578 to 0.0214578
Heightened Def Con from 0.021463 to 0.021463
Heightened Def Con from 0.021463 to 0.021463
Heightened Def Con from 0.0217998 to 0.0217998
Heightened Def Con from 0.0219682 to 0.0219682
Heightened Def Con from 0.0224734 to 0.0224734
Heightened Def Con from 0.0226416 to 0.0226416
Heightened Def Con from 0.0226417 to 0.0226417
Heightened Def Con from 0.0226419 to 0.0226419
Heightened Def Con from 0.0228103 to 0.0228103
Heightened Def Con from 0.0229785 to 0.0229785
Heightened Def Con from 0.022979 to 0.022979
Heightened Def Con from 0.0229791 to 0.0229791
Heightened Def Con from 0.0233142 to 0.0233142
Heightened Def Con from 0.0233151 to 0.0233151
Heightened Def Con from 0.0233156 to 0.0233156
Heightened Def Con from 0.0234835 to 0.0234835
Heightened Def Con from 0.0234838 to 0.0234839
Heightened Def Con from 0.0234841 to 0.0234841
Heightened Def Con from 0.0234842 to 0.0234842
Heightened Def Con from 0.0236517 to 0.0236517
Heightened Def Con from 0.0236521 to 0.0236521
Heightened Def Con from 0.0238203 to 0.0238203
Heightened Def Con from 0.0239887 to 0.0239887
Heightened Def Con from 0.0241572 to 0.0241572
Heightened Def Con from 0.0241576 to 0.0241576
Heightened Def Con from 0.0244939 to 0.0244939
Heightened Def Con from 0.0246623 to 0.0246623
Heightened Def Con from 0.0246627 to 0.0246627
Heightened Def Con from 0.0246628 to 0.0246628
Heightened Def Con from 0.0248306 to 0.0248306
Heightened Def Con from 0.0249987 to 0.0249987
Heightened Def Con from 0.0249989 to 0.0249989
Heightened Def Con from 0.0249991 to 0.0249991
Heightened Def Con from 0.0249994 to 0.0249994
Heightened Def Con from 0.0251628 to 0.0251628
Heightened Def Con from 0.0251674 to 0.0251674
Heightened Def Con from 0.0253357 to 0.0253357
Heightened Def Con from 0.0255042 to 0.0255042
Heightened Def Con from 0.0258385 to 0.0258385
Heightened Def Con from 0.0258406 to 0.0258406
Heightened Def Con from 0.0258407 to 0.0258407
Heightened Def Con from 0.0260051 to 0.0260051
Heightened Def Con from 0.026009 to 0.026009
Heightened Def Con from 0.0261774 to 0.0261774
Heightened Def Con from 0.0261779 to 0.0261779
Heightened Def Con from 0.026178 to 0.026178
Heightened Def Con from 0.0263458 to 0.0263458
Heightened Def Con from 0.0263462 to 0.0263463
Heightened Def Con from 0.0263464 to 0.0263464
Heightened Def Con from 0.0265141 to 0.0265141
Heightened Def Con from 0.0268505 to 0.0268505
Heightened Def Con from 0.027019 to 0.027019
Heightened Def Con from 0.0270195 to 0.0270195
Heightened Def Con from 0.0271874 to 0.0271874
Heightened Def Con from 0.0273557 to 0.0273557
Heightened Def Con from 0.0275206 to 0.0275207
Heightened Def Con from 0.027524 to 0.027524
Heightened Def Con from 0.027524 to 0.027524
Heightened Def Con from 0.0276877 to 0.0276877
Heightened Def Con from 0.0276923 to 0.0276923
Heightened Def Con from 0.0278608 to 0.0278608
Heightened Def Con from 0.0278612 to 0.0278612
Heightened Def Con from 0.0278613 to 0.0278613
Heightened Def Con from 0.028029 to 0.028029
Heightened Def Con from 0.028029 to 0.028029
Heightened Def Con from 0.0280292 to 0.0280292
Heightened Def Con from 0.0281964 to 0.0281964
Heightened Def Con from 0.0281974 to 0.0281974
Heightened Def Con from 0.0281978 to 0.0281978
Heightened Def Con from 0.028198 to 0.028198
Heightened Def Con from 0.0283617 to 0.0283617
Heightened Def Con from 0.0283655 to 0.0283655
Heightened Def Con from 0.0283656 to 0.0283656
Heightened Def Con from 0.0283658 to 0.0283658
Heightened Def Con from 0.0283662 to 0.0283662
Heightened Def Con from 0.0285339 to 0.0285339
Heightened Def Con from 0.0285344 to 0.0285344
Heightened Def Con from 0.0285345 to 0.0285345
Heightened Def Con from 0.0287023 to 0.0287023
Heightened Def Con from 0.0288707 to 0.0288707
Heightened Def Con from 0.029039 to 0.0290391
Heightened Def Con from 0.0290395 to 0.0290395
Heightened Def Con from 0.0290396 to 0.0290396
Heightened Def Con from 0.0292073 to 0.0292073
Heightened Def Con from 0.0295438 to 0.0295438
Heightened Def Con from 0.0295439 to 0.0295439
Heightened Def Con from 0.0297083 to 0.0297083
Heightened Def Con from 0.0298803 to 0.0298803
Heightened Def Con from 0.029881 to 0.029881
Heightened Def Con from 0.0298812 to 0.0298812
Heightened Def Con from 0.0300491 to 0.0300491
Heightened Def Con from 0.0302175 to 0.0302175
Heightened Def Con from 0.0302179 to 0.0302179
Heightened Def Con from 0.0303857 to 0.0303857
Heightened Def Con from 0.0303857 to 0.0303857
Heightened Def Con from 0.0303864 to 0.0303864
Heightened Def Con from 0.030554 to 0.030554
Heightened Def Con from 0.0308908 to 0.0308908
Heightened Def Con from 0.0308908 to 0.0308908
Heightened Def Con from 0.0310593 to 0.0310593
Heightened Def Con from 0.0310598 to 0.0310598
Heightened Def Con from 0.0310599 to 0.0310599
Heightened Def Con from 0.0312276 to 0.0312276
Heightened Def Con from 0.0312276 to 0.0312276
Heightened Def Con from 0.0313958 to 0.0313958
Heightened Def Con from 0.0313959 to 0.0313959
Heightened Def Con from 0.0315645 to 0.0315645
[...]
Heightened Def Con from 0.0551031 to 0.0551031
Heightened Def Con from 0.055114 to 0.055114
Heightened Def Con from 0.0551403 to 0.0551403
Heightened Def Con from 0.0558069 to 0.0558069
Heightened Def Con from 0.0559861 to 0.0559861
Heightened Def Con from 0.0559887 to 0.0559887
Heightened Def Con from 0.0563302 to 0.0563302
Heightened Def Con from 0.0564984 to 0.0564984
Heightened Def Con from 0.0564985 to 0.0564985
Heightened Def Con from 0.0568354 to 0.0568354
Heightened Def Con from 0.0571724 to 0.0571724
Heightened Def Con from 0.0571728 to 0.0571728
Heightened Def Con from 0.0571729 to 0.0571729
Heightened Def Con from 0.057341 to 0.057341
Heightened Def Con from 0.0575091 to 0.0575091
Heightened Def Con from 0.0575092 to 0.0575092
Heightened Def Con from 0.0575093 to 0.0575093
Heightened Def Con from 0.0576778 to 0.0576778
Heightened Def Con from 0.0578462 to 0.0578462
Heightened Def Con from 0.0578462 to 0.0578462
Heightened Def Con from 0.0581831 to 0.0581831
Heightened Def Con from 0.0581831 to 0.0581831
Heightened Def Con from 0.0581833 to 0.0581833
Heightened Def Con from 0.0583518 to 0.0583518
Heightened Def Con from 0.0585204 to 0.0585204
Heightened Def Con from 0.0588573 to 0.0588573
Heightened Def Con from 0.0591944 to 0.0591944
Heightened Def Con from 0.0595312 to 0.0595312
Heightened Def Con from 0.0595313 to 0.0595313
Heightened Def Con from 0.0597 to 0.0597
Heightened Def Con from 0.0598684 to 0.0598684
Heightened Def Con from 0.0598685 to 0.0598685
Heightened Def Con from 0.059869 to 0.059869
Heightened Def Con from 0.0598691 to 0.0598691
Heightened Def Con from 0.0602056 to 0.0602056
Heightened Def Con from 0.0602061 to 0.0602061
Heightened Def Con from 0.0602062 to 0.0602062
Heightened Def Con from 0.060374 to 0.060374
Heightened Def Con from 0.060374 to 0.060374
Heightened Def Con from 0.0605426 to 0.0605426
Heightened Def Con from 0.060711 to 0.060711
Heightened Def Con from 0.0607115 to 0.0607115
Heightened Def Con from 0.0607116 to 0.0607116
Heightened Def Con from 0.0608793 to 0.0608793
Heightened Def Con from 0.0610478 to 0.0610478
Heightened Def Con from 0.0612163 to 0.0612163
Heightened Def Con from 0.0612165 to 0.0612165
Heightened Def Con from 0.0613803 to 0.0613804
Heightened Def Con from 0.0613834 to 0.0613834
Heightened Def Con from 0.0613849 to 0.0613849
Heightened Def Con from 0.0615533 to 0.0615533
Heightened Def Con from 0.0618901 to 0.0618901
Heightened Def Con from 0.0620585 to 0.0620585
Heightened Def Con from 0.0622238 to 0.0622238
Heightened Def Con from 0.0622272 to 0.0622272
Heightened Def Con from 0.0622277 to 0.0622277
Heightened Def Con from 0.0622278 to 0.0622278
Heightened Def Con from 0.0623956 to 0.0623956
Heightened Def Con from 0.0627325 to 0.0627325
Heightened Def Con from 0.062733 to 0.062733
Heightened Def Con from 0.0627331 to 0.0627331
Heightened Def Con from 0.0630678 to 0.0630678
Heightened Def Con from 0.0630692 to 0.0630692
Heightened Def Con from 0.0630693 to 0.0630693
Heightened Def Con from 0.0632377 to 0.0632377
Heightened Def Con from 0.0632381 to 0.0632381
Heightened Def Con from 0.0634066 to 0.0634066
Heightened Def Con from 0.0635751 to 0.0635751
Heightened Def Con from 0.0635752 to 0.0635752
Heightened Def Con from 0.0637435 to 0.0637435
Heightened Def Con from 0.0639109 to 0.0639109
Heightened Def Con from 0.0639118 to 0.0639118
Heightened Def Con from 0.0642472 to 0.0642472
Heightened Def Con from 0.0642488 to 0.0642488
Heightened Def Con from 0.0644139 to 0.0644139
Heightened Def Con from 0.0644172 to 0.0644172
Heightened Def Con from 0.0644173 to 0.0644173
Heightened Def Con from 0.0644177 to 0.0644178
Heightened Def Con from 0.0645854 to 0.0645854
Heightened Def Con from 0.0645857 to 0.0645857
Heightened Def Con from 0.0647538 to 0.0647538
Heightened Def Con from 0.064918 to 0.064918
Heightened Def Con from 0.0650907 to 0.0650907
Heightened Def Con from 0.065091 to 0.065091
Heightened Def Con from 0.0652583 to 0.0652583
Heightened Def Con from 0.0652593 to 0.0652593
Heightened Def Con from 0.0654276 to 0.0654276
Heightened Def Con from 0.0657643 to 0.0657643
Heightened Def Con from 0.0659327 to 0.0659327
Heightened Def Con from 0.0659331 to 0.0659331
Heightened Def Con from 0.066101 to 0.066101
Heightened Def Con from 0.0662693 to 0.0662693
Heightened Def Con from 0.0664375 to 0.0664375
Heightened Def Con from 0.0664376 to 0.0664376
Heightened Def Con from 0.0669379 to 0.0669379
Heightened Def Con from 0.0669423 to 0.0669423
Heightened Def Con from 0.0669425 to 0.0669425
Heightened Def Con from 0.0672781 to 0.0672781
Heightened Def Con from 0.0672789 to 0.0672789
Heightened Def Con from 0.067279 to 0.067279
Heightened Def Con from 0.067448 to 0.067448
Heightened Def Con from 0.0676158 to 0.0676158
Heightened Def Con from 0.0677842 to 0.0677842
Heightened Def Con from 0.0679523 to 0.0679523
Heightened Def Con from 0.0679525 to 0.0679525
Heightened Def Con from 0.067953 to 0.067953
Heightened Def Con from 0.0681209 to 0.0681209
Heightened Def Con from 0.0681213 to 0.0681213
Heightened Def Con from 0.0681214 to 0.0681214
Heightened Def Con from 0.0682892 to 0.0682892
Heightened Def Con from 0.0682897 to 0.0682897
Heightened Def Con from 0.0682898 to 0.0682898
Heightened Def Con from 0.0684553 to 0.0684553
Heightened Def Con from 0.0684573 to 0.0684573
Heightened Def Con from 0.0684574 to 0.0684574
Heightened Def Con from 0.0684574 to 0.0684574
Heightened Def Con from 0.0689591 to 0.0689591
Heightened Def Con from 0.0689603 to 0.0689603
Heightened Def Con from 0.0689625 to 0.0689625
Heightened Def Con from 0.0692992 to 0.0692992
Heightened Def Con from 0.0692997 to 0.0692997
Heightened Def Con from 0.0692998 to 0.0692998
Heightened Def Con from 0.0694675 to 0.0694675
Heightened Def Con from 0.0696358 to 0.0696358
Heightened Def Con from 0.0696363 to 0.0696363
Heightened Def Con from 0.0696364 to 0.0696364
Heightened Def Con from 0.0698001 to 0.0698001
Heightened Def Con from 0.0699725 to 0.0699725
Heightened Def Con from 0.0701398 to 0.0701398
Heightened Def Con from 0.070309 to 0.070309
Heightened Def Con from 0.0704774 to 0.0704774
Heightened Def Con from 0.0704778 to 0.0704779
Heightened Def Con from 0.070478 to 0.070478
Heightened Def Con from 0.0706457 to 0.0706457
Heightened Def Con from 0.070814 to 0.070814
Heightened Def Con from 0.0709825 to 0.0709825
Heightened Def Con from 0.0709829 to 0.0709829
Heightened Def Con from 0.0709831 to 0.0709831
Heightened Def Con from 0.0711507 to 0.0711507
Heightened Def Con from 0.0713139 to 0.0713139
Heightened Def Con from 0.0714875 to 0.0714875
Heightened Def Con from 0.071488 to 0.071488
Heightened Def Con from 0.0714881 to 0.0714881
Heightened Def Con from 0.0716525 to 0.0716525
Heightened Def Con from 0.0716558 to 0.0716558
Heightened Def Con from 0.0718243 to 0.0718243
Heightened Def Con from 0.071993 to 0.071993
Heightened Def Con from 0.0723291 to 0.0723291
Heightened Def Con from 0.0723296 to 0.0723296
Heightened Def Con from 0.0723297 to 0.0723297
Heightened Def Con from 0.0724974 to 0.0724974
Heightened Def Con from 0.0726659 to 0.0726659
Heightened Def Con from 0.0731698 to 0.0731698
Heightened Def Con from 0.0731715 to 0.0731715
Heightened Def Con from 0.0733389 to 0.0733389
Heightened Def Con from 0.0733391 to 0.0733391
Heightened Def Con from 0.0735066 to 0.0735066
Heightened Def Con from 0.0735075 to 0.0735075
Heightened Def Con from 0.0736757 to 0.0736757
Heightened Def Con from 0.0736758 to 0.0736758
Heightened Def Con from 0.073676 to 0.073676
Heightened Def Con from 0.0736763 to 0.0736763
Heightened Def Con from 0.0736764 to 0.0736764
Heightened Def Con from 0.0738442 to 0.0738442
Heightened Def Con from 0.0738447 to 0.0738447
Heightened Def Con from 0.0740126 to 0.0740126
Heightened Def Con from 0.0741809 to 0.0741809
Heightened Def Con from 0.0743493 to 0.0743493
Heightened Def Con from 0.0743494 to 0.0743494
Heightened Def Con from 0.0743498 to 0.0743498
Heightened Def Con from 0.0746845 to 0.0746845
Heightened Def Con from 0.074686 to 0.074686
Heightened Def Con from 0.0746865 to 0.0746865
Heightened Def Con from 0.0746866 to 0.0746866
Heightened Def Con from 0.0748491 to 0.0748491
Heightened Def Con from 0.0748522 to 0.0748522
Heightened Def Con from 0.0748543 to 0.0748543
Heightened Def Con from 0.0748548 to 0.0748548
Heightened Def Con from 0.075191 to 0.075191
Heightened Def Con from 0.0751911 to 0.0751911
Heightened Def Con from 0.0753594 to 0.0753594
Heightened Def Con from 0.0755277 to 0.0755277
Heightened Def Con from 0.075696 to 0.075696
Heightened Def Con from 0.0758643 to 0.0758643
Heightened Def Con from 0.0760326 to 0.0760326
Heightened Def Con from 0.0762007 to 0.0762007
Heightened Def Con from 0.076201 to 0.076201
Heightened Def Con from 0.0763693 to 0.0763693
Heightened Def Con from 0.0765374 to 0.0765374
Heightened Def Con from 0.0767059 to 0.0767059
Heightened Def Con from 0.0767064 to 0.0767064
Heightened Def Con from 0.0767065 to 0.0767065
Heightened Def Con from 0.0768748 to 0.0768748
Heightened Def Con from 0.0770426 to 0.0770426
Heightened Def Con from 0.0772064 to 0.0772064
Heightened Def Con from 0.077379 to 0.077379
Heightened Def Con from 0.0773794 to 0.0773794
Heightened Def Con from 0.0773797 to 0.0773797
Heightened Def Con from 0.0775476 to 0.0775476
Heightened Def Con from 0.077716 to 0.077716
Heightened Def Con from 0.0778844 to 0.0778844
Heightened Def Con from 0.0780528 to 0.0780528
Heightened Def Con from 0.0780532 to 0.0780532
Heightened Def Con from 0.0780534 to 0.0780534
Heightened Def Con from 0.0782211 to 0.0782211
Heightened Def Con from 0.0783893 to 0.0783893
Heightened Def Con from 0.0783894 to 0.0783894
Heightened Def Con from 0.0783898 to 0.0783899
Heightened Def Con from 0.07839 to 0.07839
Heightened Def Con from 0.0785526 to 0.0785526
Heightened Def Con from 0.0785578 to 0.0785578
Heightened Def Con from 0.078726 to 0.078726
Heightened Def Con from 0.0790581 to 0.0790581
Heightened Def Con from 0.0792265 to 0.0792265
Heightened Def Con from 0.0793993 to 0.0793993
Heightened Def Con from 0.0793998 to 0.0793998
Heightened Def Con from 0.0797358 to 0.0797358
Heightened Def Con from 0.0797358 to 0.0797359
Heightened Def Con from 0.0799043 to 0.0799043
Heightened Def Con from 0.0800727 to 0.0800727
Heightened Def Con from 0.0804092 to 0.0804092
Heightened Def Con from 0.0805778 to 0.0805778
Heightened Def Con from 0.0807461 to 0.0807461
Heightened Def Con from 0.0809145 to 0.0809145
Heightened Def Con from 0.0810829 to 0.0810829
Heightened Def Con from 0.0812512 to 0.0812512
Heightened Def Con from 0.0817562 to 0.0817562
Heightened Def Con from 0.0819202 to 0.0819202
Heightened Def Con from 0.0820929 to 0.0820929
Heightened Def Con from 0.0822568 to 0.0822568
Heightened Def Con from 0.0822614 to 0.0822614
Heightened Def Con from 0.0827644 to 0.0827644
Heightened Def Con from 0.0829349 to 0.0829349
Heightened Def Con from 0.0829353 to 0.0829353
Heightened Def Con from 0.0829354 to 0.0829354
Heightened Def Con from 0.0831032 to 0.0831032
Heightened Def Con from 0.0831037 to 0.0831037
Heightened Def Con from 0.0831038 to 0.0831038
Heightened Def Con from 0.0832694 to 0.0832694
Heightened Def Con from 0.0832715 to 0.0832715
Heightened Def Con from 0.0834399 to 0.0834399
Heightened Def Con from 0.0836083 to 0.0836083
Heightened Def Con from 0.0837766 to 0.0837766
Heightened Def Con from 0.0837767 to 0.0837767
Heightened Def Con from 0.083941 to 0.083941
Heightened Def Con from 0.083945 to 0.083945
Heightened Def Con from 0.0841134 to 0.0841134
Heightened Def Con from 0.0842817 to 0.0842817
Heightened Def Con from 0.0844449 to 0.0844449
Heightened Def Con from 0.0844501 to 0.0844501
Heightened Def Con from 0.0846184 to 0.0846184
Heightened Def Con from 0.0846189 to 0.0846189
Heightened Def Con from 0.084619 to 0.084619
Heightened Def Con from 0.0847867 to 0.0847867
Heightened Def Con from 0.0847872 to 0.0847872
Heightened Def Con from 0.0847873 to 0.0847873
Heightened Def Con from 0.084955 to 0.084955
Heightened Def Con from 0.0851234 to 0.0851234
Heightened Def Con from 0.0851238 to 0.0851238
Heightened Def Con from 0.085124 to 0.085124
Heightened Def Con from 0.0852902 to 0.0852902
Heightened Def Con from 0.0852915 to 0.0852915
Heightened Def Con from 0.0852915 to 0.0852916
Heightened Def Con from 0.0852917 to 0.0852917
Heightened Def Con from 0.0852918 to 0.0852918
Heightened Def Con from 0.0852922 to 0.0852922
Heightened Def Con from 0.0852923 to 0.0852923
Heightened Def Con from 0.08546 to 0.08546
Heightened Def Con from 0.0854605 to 0.0854605
Heightened Def Con from 0.0854606 to 0.0854606
Heightened Def Con from 0.0856284 to 0.0856284
Heightened Def Con from 0.0857969 to 0.0857969
Heightened Def Con from 0.0857974 to 0.0857974
Heightened Def Con from 0.0857975 to 0.0857975
Heightened Def Con from 0.0859653 to 0.0859653
Heightened Def Con from 0.0861296 to 0.0861296
Heightened Def Con from 0.0861336 to 0.0861336
Heightened Def Con from 0.0863021 to 0.0863021
Heightened Def Con from 0.0864703 to 0.0864703
Heightened Def Con from 0.0866387 to 0.0866387
Heightened Def Con from 0.0866392 to 0.0866392
Heightened Def Con from 0.0866393 to 0.0866393
Heightened Def Con from 0.0868069 to 0.0868069
Heightened Def Con from 0.0868071 to 0.0868071
Heightened Def Con from 0.0869733 to 0.0869734
Heightened Def Con from 0.0871439 to 0.0871439
Heightened Def Con from 0.087144 to 0.087144
Heightened Def Con from 0.0873122 to 0.0873122
Heightened Def Con from 0.0874808 to 0.0874808
Heightened Def Con from 0.0876493 to 0.0876493
Heightened Def Con from 0.0876497 to 0.0876497
Heightened Def Con from 0.0876498 to 0.0876498
Heightened Def Con from 0.0878177 to 0.0878177
Heightened Def Con from 0.0879859 to 0.0879859
Heightened Def Con from 0.0883224 to 0.0883224
Heightened Def Con from 0.0884912 to 0.0884912
Heightened Def Con from 0.0884917 to 0.0884917
Heightened Def Con from 0.0884918 to 0.0884918
Heightened Def Con from 0.0886596 to 0.0886596
Heightened Def Con from 0.0888238 to 0.0888238
Heightened Def Con from 0.0888277 to 0.0888277
Heightened Def Con from 0.0888278 to 0.0888278
Heightened Def Con from 0.0888279 to 0.0888279
Heightened Def Con from 0.0889962 to 0.0889962
Heightened Def Con from 0.0891644 to 0.0891644
Heightened Def Con from 0.0893328 to 0.0893328
Heightened Def Con from 0.0894959 to 0.0894959
Heightened Def Con from 0.089501 to 0.089501
Heightened Def Con from 0.0895011 to 0.0895011
Heightened Def Con from 0.0895012 to 0.0895012
Heightened Def Con from 0.0896693 to 0.0896693
Heightened Def Con from 0.0896694 to 0.0896694
Heightened Def Con from 0.0896698 to 0.0896698
Heightened Def Con from 0.08967 to 0.08967
Heightened Def Con from 0.0900015 to 0.0900015
Heightened Def Con from 0.0900059 to 0.0900059
Heightened Def Con from 0.090006 to 0.090006
Heightened Def Con from 0.0901748 to 0.0901748
Heightened Def Con from 0.0903382 to 0.0903382
Heightened Def Con from 0.0903427 to 0.0903427
Heightened Def Con from 0.0903427 to 0.0903427
Heightened Def Con from 0.0906794 to 0.0906794
Heightened Def Con from 0.0906795 to 0.0906795
Heightened Def Con from 0.0906797 to 0.0906797
Heightened Def Con from 0.0906801 to 0.0906802
Heightened Def Con from 0.0908479 to 0.0908479
Heightened Def Con from 0.0910162 to 0.0910162
Heightened Def Con from 0.0910167 to 0.0910167
Heightened Def Con from 0.0910168 to 0.0910168
Heightened Def Con from 0.0911846 to 0.0911846
Heightened Def Con from 0.0913528 to 0.0913528
Heightened Def Con from 0.0915171 to 0.0915171
Heightened Def Con from 0.0915209 to 0.0915209
Heightened Def Con from 0.091521 to 0.091521
Heightened Def Con from 0.0916895 to 0.0916895
Heightened Def Con from 0.0916899 to 0.0916899
Heightened Def Con from 0.09169 to 0.09169
Heightened Def Con from 0.0918578 to 0.0918578
Heightened Def Con from 0.0920216 to 0.0920216
Heightened Def Con from 0.0920262 to 0.0920262
Heightened Def Con from 0.0920266 to 0.0920266
Heightened Def Con from 0.0920267 to 0.0920267
Heightened Def Con from 0.0921944 to 0.0921944
Heightened Def Con from 0.0921944 to 0.0921944
Heightened Def Con from 0.0921951 to 0.0921951
Heightened Def Con from 0.0923629 to 0.0923629
Heightened Def Con from 0.0925312 to 0.0925312
Heightened Def Con from 0.0925317 to 0.0925317
Heightened Def Con from 0.0925318 to 0.0925318
Heightened Def Con from 0.0926944 to 0.0926944
Heightened Def Con from 0.0926996 to 0.0926996
Heightened Def Con from 0.0928679 to 0.0928679
Heightened Def Con from 0.0932045 to 0.0932045
Heightened Def Con from 0.0932046 to 0.0932046
Heightened Def Con from 0.0932049 to 0.0932049
Heightened Def Con from 0.0933727 to 0.0933727
Heightened Def Con from 0.0933728 to 0.0933728
Heightened Def Con from 0.0933729 to 0.0933729
Heightened Def Con from 0.0935404 to 0.0935404
Heightened Def Con from 0.0937097 to 0.0937097
Heightened Def Con from 0.093878 to 0.093878
Heightened Def Con from 0.0938785 to 0.0938785
Heightened Def Con from 0.0938786 to 0.0938786
Heightened Def Con from 0.0940463 to 0.0940463
Heightened Def Con from 0.0940468 to 0.0940468
Heightened Def Con from 0.0940469 to 0.0940469
Heightened Def Con from 0.0942146 to 0.0942146
Heightened Def Con from 0.0943829 to 0.0943829
Heightened Def Con from 0.0945512 to 0.0945512
Heightened Def Con from 0.0947193 to 0.0947193
Heightened Def Con from 0.0947195 to 0.0947195
Heightened Def Con from 0.0948878 to 0.0948878
Heightened Def Con from 0.0950562 to 0.0950562
Heightened Def Con from 0.0952212 to 0.0952213
Heightened Def Con from 0.0952246 to 0.0952246
Heightened Def Con from 0.0953926 to 0.0953926
Heightened Def Con from 0.0953927 to 0.0953927
Heightened Def Con from 0.0953928 to 0.0953928
Heightened Def Con from 0.0953933 to 0.0953934
Heightened Def Con from 0.0953935 to 0.0953935
Heightened Def Con from 0.0955612 to 0.0955612
Heightened Def Con from 0.0957295 to 0.0957295
Heightened Def Con from 0.0958976 to 0.0958976
Heightened Def Con from 0.0960641 to 0.0960641
Heightened Def Con from 0.0960663 to 0.0960663
Heightened Def Con from 0.0962345 to 0.0962345
Heightened Def Con from 0.096403 to 0.096403
Heightened Def Con from 0.0964034 to 0.0964034
Heightened Def Con from 0.0964035 to 0.0964035
Heightened Def Con from 0.0965713 to 0.0965713
Heightened Def Con from 0.0965717 to 0.0965717
Heightened Def Con from 0.0965719 to 0.0965719
Heightened Def Con from 0.0967396 to 0.0967396
Heightened Def Con from 0.0970763 to 0.0970763
Heightened Def Con from 0.097413 to 0.097413
Heightened Def Con from 0.0975813 to 0.0975813
Heightened Def Con from 0.0977451 to 0.0977451
Heightened Def Con from 0.0977497 to 0.0977497
Heightened Def Con from 0.0982545 to 0.0982545
Heightened Def Con from 0.0982546 to 0.0982546
Heightened Def Con from 0.098423 to 0.098423
Heightened Def Con from 0.0985915 to 0.0985915
Heightened Def Con from 0.0987598 to 0.0987598
Heightened Def Con from 0.0990911 to 0.0990911
Heightened Def Con from 0.0990962 to 0.0990962
Heightened Def Con from 0.0990963 to 0.0990963
Heightened Def Con from 0.0992648 to 0.0992648
Heightened Def Con from 0.0994329 to 0.0994329
Heightened Def Con from 0.0994329 to 0.0994329
Heightened Def Con from 0.0994331 to 0.0994331
Heightened Def Con from 0.0994332 to 0.0994332
Heightened Def Con from 0.0994336 to 0.0994336
Heightened Def Con from 0.0994337 to 0.0994337
Heightened Def Con from 0.0996015 to 0.0996015
Heightened Def Con from 0.0997697 to 0.0997697
Heightened Def Con from 0.099938 to 0.099938
Heightened Def Con from 0.0999385 to 0.0999385
Heightened Def Con from 0.0999386 to 0.0999386

Date: Mon Jan 23 21:44:23 2017
Total elapsed time: 239.180 seconds.

tnom = 27
temp = 27
method = modified trap
totiter = 16700035
traniter = 16700015
tranpoints = 4757288
accept = 3442681
rejected = 1317389
matrix size = 44
fillins = 14
solver = Normal
Thread vector: 15.4/7.7[2] 4.7/2.4[2] 1.7/1.6[2] 0.2/0.6[1]  2592/500
Matrix Compiler1: 2.94 KB object code size  0.5/0.3/[0.2]
Matrix Compiler2: off  [0.2]/1.1/0.3


