Circuit: * C:\Users\Alexey Revinski\Documents\1_CLASS\BME 390-2\IAR Projects\BME390\LTSpice\PulseGenerator1\PulseGen1.asc

Instance "m:m2:1": Width narrower than recommended for a level 3 MOSFET.
Instance "m:m3:1": Width narrower than recommended for a level 3 MOSFET.
Direct Newton iteration for .op point succeeded.
Heightened Def Con from 0.000284219 to 0.00028422
Heightened Def Con from 0.000365715 ++++++++++++++++++++++++++to 0.000365715
Heightened Def Con from 0.000365715 ++++++++++++++++++++++++++to 0.000365715
Heightened Def Con from 0.000365715 ++++++++++++++++++++++++++to 0.000365715
Heightened Def Con from 0.000365715 ++++++++++++++++++++++++++to 0.000365715
Heightened Def Con from 0.000365715 ++++++++++++++++++++++++++to 0.000365715
Heightened Def Con from 0.000365715 ++++++++++++++++++++++++++to 0.000365715
Heightened Def Con from 0.000365715 ++++++++++++++++++++++++++to 0.000365715
Heightened Def Con from 0.000365715 ++++++++++++++++++++++++++to 0.000365715
Heightened Def Con from 0.000365715 ++++++++++++++++++++++++++to 0.000365715
Heightened Def Con from 0.00036725 +++++++++++++++++++++++++++to 0.00036725
Heightened Def Con from 0.00036725 ++++++++++++++++++++++++++to 0.00036725
Heightened Def Con from 0.00036725 ++++++++++++++++++++++++++to 0.00036725
Heightened Def Con from 0.00036725 ++++++++++++++++++++++++++++to 0.00036725
Heightened Def Con from 0.00036725 ++++++++++++++++++++++++++to 0.00036725
Heightened Def Con from 0.00036725 ++++++++++++++++++++++++++to 0.00036725
Heightened Def Con from 0.00036725 ++++++++++++++++++++++++++to 0.00036725
Heightened Def Con from 0.00036725 ++++++++++++++++++++++++++to 0.00036725
Heightened Def Con from 0.00036725 ++++++++++++++++++++++++++to 0.00036725
Heightened Def Con from 0.00036725 ++++++++++++++++++++++++++to 0.00036725
Heightened Def Con from 0.00036725 ++++++++++++++++++++++++++to 0.00036725
Heightened Def Con from 0.00036725 ++++++++++++++++++++++++++to 0.00036725
Heightened Def Con from 0.00036725 ++++++++++++++++++++++++++to 0.00036725
Heightened Def Con from 0.00036725 +++++++++++++++++++++++++++to 0.00036725
Heightened Def Con from 0.00036725 ++++++++++++++++++++++++++to 0.00036725
Heightened Def Con from 0.00036725 ++++++++++++++++++++++++++to 0.00036725
Heightened Def Con from 0.00036725 ++++++++++++++++++++++++++to 0.00036725
Heightened Def Con from 0.00036725 ++++++++++++++++++++++++++to 0.00036725
Heightened Def Con from 0.00036725 ++++++++++++++++++++++++++to 0.00036725
Heightened Def Con from 0.00036725 ++++++++++++++++++++++++++to 0.00036725
Heightened Def Con from 0.00036725 +++++++++++++++++++++++++++to 0.00036725
Heightened Def Con from 0.00036725 +++++++++++++++++++++++++++to 0.00036725
Heightened Def Con from 0.00036725 ++++++++++++++++++++++++++to 0.00036725
Heightened Def Con from 0.00036725 ++++++++++++++++++++++++++to 0.00036725
Heightened Def Con from 0.00036725 ++++++++++++++++++++++++++to 0.00036725
Heightened Def Con from 0.000368013 +++++++++++++++++++++++++++to 0.000368013
Heightened Def Con from 0.000368013 ++++++++++++++++++++++++++to 0.000368013
Heightened Def Con from 0.000368013 ++++++++++++++++++++++++++to 0.000368013
Heightened Def Con from 0.000368013 ++++++++++++++++++++++++++++to 0.000368013
Heightened Def Con from 0.000368013 ++++++++++++++++++++++++++to 0.000368013
Heightened Def Con from 0.000368013 ++++++++++++++++++++++++++to 0.000368013
Heightened Def Con from 0.000368013 ++++++++++++++++++++++++++to 0.000368013
Heightened Def Con from 0.000368013 ++++++++++++++++++++++++++to 0.000368013
Heightened Def Con from 0.000368013 ++++++++++++++++++++++++++to 0.000368013
Heightened Def Con from 0.000368013 ++++++++++++++++++++++++++to 0.000368013
Heightened Def Con from 0.000368013 ++++++++++++++++++++++++++to 0.000368013
Heightened Def Con from 0.000368013 ++++++++++++++++++++++++++to 0.000368013
Heightened Def Con from 0.000368013 ++++++++++++++++++++++++++to 0.000368013
Heightened Def Con from 0.000368013 ++++++++++++++++++++++++++to 0.000368013
Heightened Def Con from 0.000368013 ++++++++++++++++++++++++++to 0.000368013
Heightened Def Con from 0.000368013 ++++++++++++++++++++++++++to 0.000368013
Heightened Def Con from 0.000368013 ++++++++++++++++++++++++++to 0.000368013
Heightened Def Con from 0.000368013 ++++++++++++++++++++++++++to 0.000368013
Heightened Def Con from 0.000368013 ++++++++++++++++++++++++++to 0.000368013
Heightened Def Con from 0.000368013 ++++++++++++++++++++++++++to 0.000368013
Heightened Def Con from 0.000368013 ++++++++++++++++++++++++++to 0.000368013
Heightened Def Con from 0.000368013 ++++++++++++++++++++++++++to 0.000368013
Heightened Def Con from 0.000368013 ++++++++++++++++++++++++++to 0.000368013
Heightened Def Con from 0.000368013 +++++++++++++++++++++++++++to 0.000368013
Heightened Def Con from 0.000368013 ++++++++++++++++++++++++++to 0.000368013
Heightened Def Con from 0.000368013 ++++++++++++++++++++++++++to 0.000368013
Heightened Def Con from 0.000368013 ++++++++++++++++++++++++++to 0.000368013
Heightened Def Con from 0.000368013 ++++++++++++++++++++++++++to 0.000368013
Heightened Def Con from 0.000368013 ++++++++++++++++++++++++++to 0.000368013
Heightened Def Con from 0.000368013 ++++++++++++++++++++++++++to 0.000368013
Heightened Def Con from 0.000368013 ++++++++++++++++++++++++++to 0.000368013
Heightened Def Con from 0.000368013 ++++++++++++++++++++++++++to 0.000368013
Heightened Def Con from 0.000368013 +++++++++++++++++++++++++++to 0.000368013
Heightened Def Con from 0.000368013 ++++++++++++++++++++++++++to 0.000368013
Heightened Def Con from 0.000368013 +++++++++++++++++++++++++++to 0.000368013
Heightened Def Con from 0.000368013 ++++++++++++++++++++++++++to 0.000368013
Heightened Def Con from 0.000368013 +++++++++++++++++++++++++++to 0.000368013
Heightened Def Con from 0.000368013 ++++++++++++++++++++++++++to 0.000368013
Heightened Def Con from 0.000368013 ++++++++++++++++++++++++++to 0.000368013
Heightened Def Con from 0.000368013 ++++++++++++++++++++++++++to 0.000368013
Heightened Def Con from 0.000368013 ++++++++++++++++++++++++++to 0.000368013
Heightened Def Con from 0.000368013 ++++++++++++++++++++++++++to 0.000368013
Heightened Def Con from 0.000368013 ++++++++++++++++++++++++++to 0.000368013
Heightened Def Con from 0.000368013 ++++++++++++++++++++++++++to 0.000368013
Heightened Def Con from 0.000368013 ++++++++++++++++++++++++++to 0.000368013
Heightened Def Con from 0.000368013 ++++++++++++++++++++++++++to 0.000368013
Heightened Def Con from 0.000368013 +++++++++++++++++++++++++++to 0.000368013
Heightened Def Con from 0.000368013 ++++++++++++++++++++++++++to 0.000368013
Heightened Def Con from 0.000368013 ++++++++++++++++++++++++++to 0.000368013
Heightened Def Con from 0.000368013 ++++++++++++++++++++++++++to 0.000368013
Heightened Def Con from 0.000368013 ++++++++++++++++++++++++++to 0.000368013
Heightened Def Con from 0.000368013 ++++++++++++++++++++++++++to 0.000368013
Heightened Def Con from 0.000368013 ++++++++++++++++++++++++++to 0.000368013
Heightened Def Con from 0.000368013 ++++++++++++++++++++++++++to 0.000368013
Heightened Def Con from 0.000368013 ++++++++++++++++++++++++++to 0.000368013
Heightened Def Con from 0.000368013 ++++++++++++++++++++++++++to 0.000368013
Heightened Def Con from 0.000368013 +++++++++++++++++++++++++++to 0.000368013
Heightened Def Con from 0.000368013 ++++++++++++++++++++++++++to 0.000368013
Heightened Def Con from 0.000368013 ++++++++++++++++++++++++++to 0.000368013
Heightened Def Con from 0.000368013 ++++++++++++++++++++++++++to 0.000368013
Heightened Def Con from 0.000368013 ++++++++++++++++++++++++++to 0.000368013
Heightened Def Con from 0.000368013 +++++++++++++++++++++++++++to 0.000368013
Heightened Def Con from 0.000368013 ++++++++++++++++++++++++++to 0.000368013
Heightened Def Con from 0.000368013 ++++++++++++++++++++++++++to 0.000368013
Heightened Def Con from 0.000368013 ++++++++++++++++++++++++++to 0.000368013
Heightened Def Con from 0.000368013 ++++++++++++++++++++++++++to 0.000368013
Heightened Def Con from 0.000368013 ++++++++++++++++++++++++++to 0.000368013
Heightened Def Con from 0.000368013 ++++++++++++++++++++++++++to 0.000368013
Heightened Def Con from 0.000368013 ++++++++++++++++++++++++++to 0.000368013
Heightened Def Con from 0.000368013 ++++++++++++++++++++++++++to 0.000368013
Heightened Def Con from 0.000368013 ++++++++++++++++++++++++++to 0.000368013
Heightened Def Con from 0.000368013 +++++++++++++++++++++++++++to 0.000368013
Heightened Def Con from 0.000368013 ++++++++++++++++++++++++++to 0.000368013
Heightened Def Con from 0.000368013 ++++++++++++++++++++++++++to 0.000368013
Heightened Def Con from 0.000368013 ++++++++++++++++++++++++++++to 0.000368013
Heightened Def Con from 0.000368013 ++++++++++++++++++++++++++to 0.000368013
Heightened Def Con from 0.000368013 ++++++++++++++++++++++++++to 0.000368013
Heightened Def Con from 0.000368013 +++++++++++++++++++++++++++to 0.000368013
Heightened Def Con from 0.000368013 ++++++++++++++++++++++++++to 0.000368013
Heightened Def Con from 0.000368013 ++++++++++++++++++++++++++to 0.000368013
Heightened Def Con from 0.000368013 ++++++++++++++++++++++++++to 0.000368013
Heightened Def Con from 0.000368013 +++++++++++++++++++++++++++to 0.000368013
Heightened Def Con from 0.000368013 ++++++++++++++++++++++++++to 0.000368013
Heightened Def Con from 0.000368013 ++++++++++++++++++++++++++to 0.000368013
Heightened Def Con from 0.000368774 +++++++++++++++++++++++++to 0.000368774
Heightened Def Con from 0.000368774 +++++++++++++++++++++++++to 0.000368774
Heightened Def Con from 0.000368774 +++++++++++++++++++++++++to 0.000368774
Heightened Def Con from 0.000368774 ++++++++++++++++++++++++++to 0.000368774
Heightened Def Con from 0.000368774 +++++++++++++++++++++++++to 0.000368774
Heightened Def Con from 0.000368774 +++++++++++++++++++++++++to 0.000368774
Heightened Def Con from 0.000369534 +to 0.000369534

Date: Mon Feb 06 12:51:37 2017
Total elapsed time: 18.366 seconds.

tnom = 27
temp = 27
method = modified trap
totiter = 1350456
traniter = 1350432
tranpoints = 261125
accept = 173020
rejected = 91472
matrix size = 58
fillins = 20
solver = Normal
Thread vector: 14.6/9.2[2] 4.6/3.1[2] 1.6/1.1[2] 0.1/0.6[1]  2592/500
Matrix Compiler1: 3.96 KB object code size  0.8/0.4/[0.2]
Matrix Compiler2: 4.54 KB object code size  0.4/1.1/[0.4]


