Circuit: * C:\Users\Alexey Revinski\Documents\1_CLASS\BME 390-2\Repo\BME390\LTSpice\PulseGenerator1\PulseGen1.asc

Instance "m:m2:1": Width narrower than recommended for a level 3 MOSFET.
Instance "m:m3:1": Width narrower than recommended for a level 3 MOSFET.
Direct Newton iteration for .op point succeeded.
Heightened Def Con from 0.000284219 to 0.00028422
Heightened Def Con from 0.000365715 ++++++++++++++++++++++++++to 0.000365715
Heightened Def Con from 0.000365715 ++++++++++++++++++++++++++to 0.000365715
Heightened Def Con from 0.000365715 ++++++++++++++++++++++++++to 0.000365715
Heightened Def Con from 0.000365715 ++++++++++++++++++++++++++to 0.000365715
Heightened Def Con from 0.000365715 ++++++++++++++++++++++++++to 0.000365715
Heightened Def Con from 0.000365715 ++++++++++++++++++++++++++to 0.000365715
Heightened Def Con from 0.000365715 ++++++++++++++++++++++++++to 0.000365715
Heightened Def Con from 0.000365715 ++++++++++++++++++++++++++to 0.000365715
Heightened Def Con from 0.000365715 ++++++++++++++++++++++++++to 0.000365715
Heightened Def Con from 0.00036725 +++++++++++++++++++++++++++to 0.00036725
Heightened Def Con from 0.00036725 ++++++++++++++++++++++++++to 0.00036725
Heightened Def Con from 0.00036725 ++++++++++++++++++++++++++to 0.00036725
Heightened Def Con from 0.00036725 ++++++++++++++++++++++++++++to 0.00036725
Heightened Def Con from 0.00036725 ++++++++++++++++++++++++++to 0.00036725
Heightened Def Con from 0.00036725 ++++++++++++++++++++++++++to 0.00036725
Heightened Def Con from 0.00036725 ++++++++++++++++++++++++++to 0.00036725
Heightened Def Con from 0.00036725 ++++++++++++++++++++++++++to 0.00036725
Heightened Def Con from 0.00036725 ++++++++++++++++++++++++++to 0.00036725
Heightened Def Con from 0.00036725 ++++++++++++++++++++++++++to 0.00036725
Heightened Def Con from 0.00036725 ++++++++++++++++++++++++++to 0.00036725
Heightened Def Con from 0.00036725 ++++++++++++++++++++++++++to 0.00036725
Heightened Def Con from 0.00036725 ++++++++++++++++++++++++++to 0.00036725
Heightened Def Con from 0.00036725 +++++++++++++++++++++++++++to 0.00036725
Heightened Def Con from 0.00036725 ++++++++++++++++++++++++++to 0.00036725
Heightened Def Con from 0.00036725 ++++++++++++++++++++++++++to 0.00036725
Heightened Def Con from 0.00036725 ++++++++++++++++++++++++++to 0.00036725
Heightened Def Con from 0.00036725 ++++++++++++++++++++++++++to 0.00036725
Heightened Def Con from 0.00036725 ++++++++++++++++++++++++++to 0.00036725
Heightened Def Con from 0.00036725 ++++++++++++++++++++++++++to 0.00036725
Heightened Def Con from 0.00036725 +++++++++++++++++++++++++++to 0.00036725
Heightened Def Con from 0.00036725 +++++++++++++++++++++++++++to 0.00036725
Heightened Def Con from 0.00036725 ++++++++++++++++++++++++++to 0.00036725
Heightened Def Con from 0.00036725 ++++++++++++++++++++++++++to 0.00036725
Heightened Def Con from 0.00036725 ++++++++++++++++++++++++++to 0.00036725
Heightened Def Con from 0.000368013 +++++++++++++++++++++++++++to 0.000368013
Heightened Def Con from 0.000368013 ++++++++++++++++++++++++++to 0.000368013
Heightened Def Con from 0.000368013 ++++++++++++++++++++++++++to 0.000368013
Heightened Def Con from 0.000368013 ++++++++++++++++++++++++++++to 0.000368013
Heightened Def Con from 0.000368013 ++++++++++++++++++++++++++to 0.000368013
Heightened Def Con from 0.000368013 ++++++++++++++++++++++++++to 0.000368013
Heightened Def Con from 0.000368013 ++++++++++++++++++++++++++to 0.000368013
Heightened Def Con from 0.000368013 ++++++++++++++++++++++++++to 0.000368013
Heightened Def Con from 0.000368013 ++++++++++++++++++++++++++to 0.000368013
Heightened Def Con from 0.000368013 ++++++++++++++++++++++++++to 0.000368013
Heightened Def Con from 0.000368013 ++++++++++++++++++++++++++to 0.000368013
Heightened Def Con from 0.000368013 ++++++++++++++++++++++++++to 0.000368013
Heightened Def Con from 0.000368013 ++++++++++++++++++++++++++to 0.000368013
Heightened Def Con from 0.000368013 ++++++++++++++++++++++++++to 0.000368013
Heightened Def Con from 0.000368013 ++++++++++++++++++++++++++to 0.000368013
Heightened Def Con from 0.000368013 ++++++++++++++++++++++++++to 0.000368013
Heightened Def Con from 0.000368013 ++++++++++++++++++++++++++to 0.000368013
Heightened Def Con from 0.000368013 ++++++++++++++++++++++++++to 0.000368013
Heightened Def Con from 0.000368013 ++++++++++++++++++++++++++to 0.000368013
Heightened Def Con from 0.000368013 ++++++++++++++++++++++++++to 0.000368013
Heightened Def Con from 0.000368013 ++++++++++++++++++++++++++to 0.000368013
Heightened Def Con from 0.000368013 ++++++++++++++++++++++++++to 0.000368013
Heightened Def Con from 0.000368013 ++++++++++++++++++++++++++to 0.000368013
Heightened Def Con from 0.000368013 +++++++++++++++++++++++++++to 0.000368013
Heightened Def Con from 0.000368013 ++++++++++++++++++++++++++to 0.000368013
Heightened Def Con from 0.000368013 ++++++++++++++++++++++++++to 0.000368013
Heightened Def Con from 0.000368013 ++++++++++++++++++++++++++to 0.000368013
Heightened Def Con from 0.000368013 ++++++++++++++++++++++++++to 0.000368013
Heightened Def Con from 0.000368013 ++++++++++++++++++++++++++to 0.000368013
Heightened Def Con from 0.000368013 ++++++++++++++++++++++++++to 0.000368013
Heightened Def Con from 0.000368013 ++++++++++++++++++++++++++to 0.000368013
Heightened Def Con from 0.000368013 ++++++++++++++++++++++++++to 0.000368013
Heightened Def Con from 0.000368013 +++++++++++++++++++++++++++to 0.000368013
Heightened Def Con from 0.000368013 ++++++++++++++++++++++++++to 0.000368013
Heightened Def Con from 0.000368013 +++++++++++++++++++++++++++to 0.000368013
Heightened Def Con from 0.000368013 ++++++++++++++++++++++++++to 0.000368013
Heightened Def Con from 0.000368013 +++++++++++++++++++++++++++to 0.000368013
Heightened Def Con from 0.000368013 ++++++++++++++++++++++++++to 0.000368013
Heightened Def Con from 0.000368013 ++++++++++++++++++++++++++to 0.000368013
Heightened Def Con from 0.000368013 ++++++++++++++++++++++++++to 0.000368013
Heightened Def Con from 0.000368013 ++++++++++++++++++++++++++to 0.000368013
Heightened Def Con from 0.000368013 ++++++++++++++++++++++++++to 0.000368013
Heightened Def Con from 0.000368013 ++++++++++++++++++++++++++to 0.000368013
Heightened Def Con from 0.000368013 ++++++++++++++++++++++++++to 0.000368013
Heightened Def Con from 0.000368013 ++++++++++++++++++++++++++to 0.000368013
Heightened Def Con from 0.000368013 ++++++++++++++++++++++++++to 0.000368013
Heightened Def Con from 0.000368013 +++++++++++++++++++++++++++to 0.000368013
Heightened Def Con from 0.000368013 ++++++++++++++++++++++++++to 0.000368013
Heightened Def Con from 0.000368013 ++++++++++++++++++++++++++to 0.000368013
Heightened Def Con from 0.000368013 ++++++++++++++++++++++++++to 0.000368013
Heightened Def Con from 0.000368013 ++++++++++++++++++++++++++to 0.000368013
Heightened Def Con from 0.000368013 ++++++++++++++++++++++++++to 0.000368013
Heightened Def Con from 0.000368013 ++++++++++++++++++++++++++to 0.000368013
Heightened Def Con from 0.000368013 ++++++++++++++++++++++++++to 0.000368013
Heightened Def Con from 0.000368013 ++++++++++++++++++++++++++to 0.000368013
Heightened Def Con from 0.000368013 ++++++++++++++++++++++++++to 0.000368013
Heightened Def Con from 0.000368013 +++++++++++++++++++++++++++to 0.000368013
Heightened Def Con from 0.000368013 ++++++++++++++++++++++++++to 0.000368013
Heightened Def Con from 0.000368013 ++++++++++++++++++++++++++to 0.000368013
Heightened Def Con from 0.000368013 ++++++++++++++++++++++++++to 0.000368013
Heightened Def Con from 0.000368013 ++++++++++++++++++++++++++to 0.000368013
Heightened Def Con from 0.000368013 +++++++++++++++++++++++++++to 0.000368013
Heightened Def Con from 0.000368013 ++++++++++++++++++++++++++to 0.000368013
Heightened Def Con from 0.000368013 ++++++++++++++++++++++++++to 0.000368013
Heightened Def Con from 0.000368013 ++++++++++++++++++++++++++to 0.000368013
Heightened Def Con from 0.000368013 ++++++++++++++++++++++++++to 0.000368013
Heightened Def Con from 0.000368013 ++++++++++++++++++++++++++to 0.000368013
Heightened Def Con from 0.000368013 ++++++++++++++++++++++++++to 0.000368013
Heightened Def Con from 0.000368013 ++++++++++++++++++++++++++to 0.000368013
Heightened Def Con from 0.000368013 ++++++++++++++++++++++++++to 0.000368013
Heightened Def Con from 0.000368013 ++++++++++++++++++++++++++to 0.000368013
Heightened Def Con from 0.000368013 +++++++++++++++++++++++++++to 0.000368013
Heightened Def Con from 0.000368013 ++++++++++++++++++++++++++to 0.000368013
Heightened Def Con from 0.000368013 ++++++++++++++++++++++++++to 0.000368013
Heightened Def Con from 0.000368013 ++++++++++++++++++++++++++++to 0.000368013
Heightened Def Con from 0.000368013 ++++++++++++++++++++++++++to 0.000368013
Heightened Def Con from 0.000368013 ++++++++++++++++++++++++++to 0.000368013
Heightened Def Con from 0.000368013 +++++++++++++++++++++++++++to 0.000368013
Heightened Def Con from 0.000368013 ++++++++++++++++++++++++++to 0.000368013
Heightened Def Con from 0.000368013 ++++++++++++++++++++++++++to 0.000368013
Heightened Def Con from 0.000368013 ++++++++++++++++++++++++++to 0.000368013
Heightened Def Con from 0.000368013 +++++++++++++++++++++++++++to 0.000368013
Heightened Def Con from 0.000368013 ++++++++++++++++++++++++++to 0.000368013
Heightened Def Con from 0.000368013 ++++++++++++++++++++++++++to 0.000368013
Heightened Def Con from 0.000368774 +++++++++++++++++++++++++to 0.000368774
Heightened Def Con from 0.000368774 +++++++++++++++++++++++++to 0.000368774
Heightened Def Con from 0.000368774 +++++++++++++++++++++++++to 0.000368774
Heightened Def Con from 0.000368774 ++++++++++++++++++++++++++to 0.000368774
Heightened Def Con from 0.000368774 +++++++++++++++++++++++++to 0.000368774
Heightened Def Con from 0.000368774 +++++++++++++++++++++++++to 0.000368774
Heightened Def Con from 0.000369534 +++++++++++++++to 0.000369534
Heightened Def Con from 0.000369534 to 0.000369534
Heightened Def Con from 0.000369534 +++++++++++++++++++to 0.000369534
Heightened Def Con from 0.000369534 +++to 0.000369534
Heightened Def Con from 0.000369534 to 0.000369534
Heightened Def Con from 0.000369534 to 0.000369534
Heightened Def Con from 0.000369534 to 0.000369534
Heightened Def Con from 0.000369534 to 0.000369534
Heightened Def Con from 0.000369534 to 0.000369534
Heightened Def Con from 0.000369534 to 0.000369534
Heightened Def Con from 0.000369534 to 0.000369534
Heightened Def Con from 0.000369534 to 0.000369534
Heightened Def Con from 0.000369534 to 0.000369534
Heightened Def Con from 0.000369534 to 0.000369534
Heightened Def Con from 0.000369534 to 0.000369534
Heightened Def Con from 0.000369534 to 0.000369534
Heightened Def Con from 0.000369534 to 0.000369534
Heightened Def Con from 0.000369534 to 0.000369534
Heightened Def Con from 0.000374223 to 0.000374224
Heightened Def Con from 0.000374971 to 0.000374973
Heightened Def Con from 0.000375719 to 0.000375721
Heightened Def Con from 0.000376466 to 0.000376467
Heightened Def Con from 0.000377211 to 0.000377214
Heightened Def Con from 0.000378532 to 0.000378541
Heightened Def Con from 0.000416482 to 0.000416491
Heightened Def Con from 0.000772909 to 0.000772918
Heightened Def Con from 0.000796571 to 0.00079658
Heightened Def Con from 0.000850039 to 0.000850049
Heightened Def Con from 0.000860487 to 0.000860497
Heightened Def Con from 0.000869947 to 0.000869957
Heightened Def Con from 0.000872945 to 0.000872955
Heightened Def Con from 0.000878925 to 0.000878935
Heightened Def Con from 0.000883414 to 0.000883424
Heightened Def Con from 0.000893399 to 0.000893409
Heightened Def Con from 0.000902885 to 0.000902895
Heightened Def Con from 0.000962055 to 0.000962065
Heightened Def Con from 0.000964065 to 0.000964075
Heightened Def Con from 0.000976683 to 0.000976684
Heightened Def Con from 0.000985825 to 0.000985835
Heightened Def Con from 0.000988872 to 0.000988873
Heightened Def Con from 0.000992438 to 0.000992448
Heightened Def Con from 0.000992948 to 0.000992958
Heightened Def Con from 0.000993963 to 0.000993963
Heightened Def Con from 0.00101645 to 0.00101646
Heightened Def Con from 0.00102262 to 0.00102263
Heightened Def Con from 0.00103346 to 0.00103347
Heightened Def Con from 0.00103604 to 0.00103604
Heightened Def Con from 0.00106408 to 0.00106408
Heightened Def Con from 0.00106981 to 0.00106981
Heightened Def Con from 0.00107295 to 0.00107295
Heightened Def Con from 0.00107504 to 0.00107505
Heightened Def Con from 0.00107713 to 0.00107714
Heightened Def Con from 0.00107766 to 0.00107766
Heightened Def Con from 0.00108395 to 0.00108395
Heightened Def Con from 0.00112876 to 0.00112876
Heightened Def Con from 0.00113036 to 0.00113036
Heightened Def Con from 0.00113141 to 0.00113142
Heightened Def Con from 0.00114853 to 0.00114854
Heightened Def Con from 0.00115663 to 0.00115663
Heightened Def Con from 0.00115716 to 0.00115717
Heightened Def Con from 0.00116196 to 0.00116197
Heightened Def Con from 0.0011668 to 0.00116681
Heightened Def Con from 0.00118487 to 0.00118487
Heightened Def Con from 0.0011945 to 0.00119451
Heightened Def Con from 0.00120968 to 0.00120969
Heightened Def Con from 0.00122184 to 0.00122184
Heightened Def Con from 0.00122279 to 0.0012228
Heightened Def Con from 0.00125115 to 0.00125115
Heightened Def Con from 0.00125264 to 0.00125264
Heightened Def Con from 0.00129081 to 0.00129082
Heightened Def Con from 0.00135044 to 0.00135044
Heightened Def Con from 0.00135097 to 0.00135097
Heightened Def Con from 0.00143827 to 0.00143828
Heightened Def Con from 0.00177994 to 0.00177994
Heightened Def Con from 0.00178001 to 0.00178001
Heightened Def Con from 0.0019513 to 0.0019513
Heightened Def Con from 0.00195137 to 0.00195137
Heightened Def Con from 0.00229256 to 0.00229256
Heightened Def Con from 0.00229453 to 0.00229453
Heightened Def Con from 0.0024664 to 0.0024664
Heightened Def Con from 0.00263802 to 0.00263802
Heightened Def Con from 0.00280816 to 0.00280816
Heightened Def Con from 0.00280964 to 0.00280964
Heightened Def Con from 0.00281014 to 0.00281015
Heightened Def Con from 0.00298105 to 0.00298105
Heightened Def Con from 0.00366717 to 0.00366717
Heightened Def Con from 0.00383721 to 0.00383721
Heightened Def Con from 0.0038387 to 0.0038387
Heightened Def Con from 0.00400881 to 0.00400881
Heightened Def Con from 0.0040103 to 0.0040103
Heightened Def Con from 0.00435319 to 0.00435319
Heightened Def Con from 0.00469607 to 0.00469607
Heightened Def Con from 0.00486768 to 0.00486768
Heightened Def Con from 0.00486774 to 0.00486774
Heightened Def Con from 0.00500167 to 0.00500168
Heightened Def Con from 0.00500276 to 0.00500277
Heightened Def Con from 0.00500492 to 0.00500492
Heightened Def Con from 0.00500684 to 0.00500684
Heightened Def Con from 0.00501755 to 0.00501755
Heightened Def Con from 0.00501905 to 0.00501905
Heightened Def Con from 0.00501955 to 0.00501955
Heightened Def Con from 0.00502769 to 0.0050277
Heightened Def Con from 0.00502823 to 0.00502823
Heightened Def Con from 0.00502932 to 0.00502932
Heightened Def Con from 0.00502986 to 0.00502986
Heightened Def Con from 0.00503191 to 0.00503191
Heightened Def Con from 0.00504021 to 0.00504021
Heightened Def Con from 0.0050413 to 0.00504131
Heightened Def Con from 0.00504238 to 0.00504239
Heightened Def Con from 0.00504292 to 0.00504292
Heightened Def Con from 0.00504489 to 0.00504489
Heightened Def Con from 0.00504496 to 0.00504496
Heightened Def Con from 0.00504496 to 0.00504496
Heightened Def Con from 0.00505454 to 0.00505455
Heightened Def Con from 0.00505725 to 0.00505725
Heightened Def Con from 0.0050582 to 0.0050582
Heightened Def Con from 0.00505847 to 0.00505847
Heightened Def Con from 0.00506742 to 0.00506742
Heightened Def Con from 0.00506796 to 0.00506796
Heightened Def Con from 0.00506905 to 0.00506905
Heightened Def Con from 0.00507155 to 0.00507155
Heightened Def Con from 0.00507163 to 0.00507163
Heightened Def Con from 0.00507218 to 0.00507218
Heightened Def Con from 0.00508211 to 0.00508211
Heightened Def Con from 0.00508523 to 0.00508524
Heightened Def Con from 0.00508573 to 0.00508574
Heightened Def Con from 0.00508579 to 0.0050858
Heightened Def Con from 0.00509422 to 0.00509422
Heightened Def Con from 0.00509476 to 0.00509477
Heightened Def Con from 0.0050953 to 0.00509531
Heightened Def Con from 0.00509897 to 0.00509897
Heightened Def Con from 0.00509947 to 0.00509948
Heightened Def Con from 0.00511027 to 0.00511027
Heightened Def Con from 0.00511286 to 0.00511286
Heightened Def Con from 0.00511336 to 0.00511336
Heightened Def Con from 0.00511342 to 0.00511342
Heightened Def Con from 0.00512318 to 0.00512319
Heightened Def Con from 0.00512426 to 0.00512426
Heightened Def Con from 0.00512535 to 0.00512536
Heightened Def Con from 0.00512684 to 0.00512685
Heightened Def Con from 0.00512734 to 0.00512735
Heightened Def Con from 0.00512741 to 0.00512741
Heightened Def Con from 0.0051362 to 0.00513621
Heightened Def Con from 0.00513729 to 0.00513729
Heightened Def Con from 0.00513784 to 0.00513784
Heightened Def Con from 0.00513892 to 0.00513892
Heightened Def Con from 0.00514041 to 0.00514041
Heightened Def Con from 0.00514091 to 0.00514091
Heightened Def Con from 0.00514978 to 0.00514978
Heightened Def Con from 0.0051531 to 0.00515311
Heightened Def Con from 0.0062904 to 0.0062904
Heightened Def Con from 0.00629135 to 0.00629135
Heightened Def Con from 0.00646583 to 0.00646584
Heightened Def Con from 0.00680805 to 0.00680805
Heightened Def Con from 0.00680947 to 0.00680947
Heightened Def Con from 0.00680954 to 0.00680954
Heightened Def Con from 0.00697963 to 0.00697963
Heightened Def Con from 0.00698105 to 0.00698106
Heightened Def Con from 0.00698113 to 0.00698113
Heightened Def Con from 0.00698163 to 0.00698163
Heightened Def Con from 0.00698177 to 0.00698177
Heightened Def Con from 0.00732447 to 0.00732447
Heightened Def Con from 0.00749613 to 0.00749613
Heightened Def Con from 0.00766616 to 0.00766616
Heightened Def Con from 0.00766765 to 0.00766765
Heightened Def Con from 0.00783922 to 0.00783923
Heightened Def Con from 0.00783929 to 0.0078393
Heightened Def Con from 0.00800936 to 0.00800936
Heightened Def Con from 0.00818082 to 0.00818082
Heightened Def Con from 0.0083522 to 0.0083522
Heightened Def Con from 0.00835369 to 0.0083537
Heightened Def Con from 0.00869642 to 0.00869642
Heightened Def Con from 0.00869649 to 0.00869649
Heightened Def Con from 0.00886808 to 0.00886808
Heightened Def Con from 0.00920953 to 0.00920953
Heightened Def Con from 0.00938246 to 0.00938247
Heightened Def Con from 0.00989742 to 0.00989742
Heightened Def Con from 0.0100686 to 0.0100686
Heightened Def Con from 0.0102389 to 0.0102389
Heightened Def Con from 0.0107551 to 0.0107551
Heightened Def Con from 0.0109264 to 0.0109264
Heightened Def Con from 0.011096 to 0.011096
Heightened Def Con from 0.0110971 to 0.0110971
Heightened Def Con from 0.0117824 to 0.0117824
Heightened Def Con from 0.0117845 to 0.0117845
Heightened Def Con from 0.0121267 to 0.0121267
Heightened Def Con from 0.0122993 to 0.0122993
Heightened Def Con from 0.0124702 to 0.0124702
Heightened Def Con from 0.0124714 to 0.0124714
Heightened Def Con from 0.0136726 to 0.0136726
Heightened Def Con from 0.014014 to 0.014014
Heightened Def Con from 0.014016 to 0.014016
Heightened Def Con from 0.0143594 to 0.0143594
Heightened Def Con from 0.0145289 to 0.0145289
Heightened Def Con from 0.0147017 to 0.0147017
Heightened Def Con from 0.0150032 to 0.0150032
Heightened Def Con from 0.0150063 to 0.0150063
Heightened Def Con from 0.0150068 to 0.0150069
Heightened Def Con from 0.0150069 to 0.0150069
Heightened Def Con from 0.0150159 to 0.0150159
Heightened Def Con from 0.015019 to 0.015019
Heightened Def Con from 0.0150195 to 0.0150195
Heightened Def Con from 0.0150196 to 0.0150196
Heightened Def Con from 0.0150271 to 0.0150271
Heightened Def Con from 0.0150288 to 0.0150288
Heightened Def Con from 0.0150319 to 0.0150319
Heightened Def Con from 0.0150326 to 0.0150326
Heightened Def Con from 0.0150402 to 0.0150402
Heightened Def Con from 0.0150407 to 0.0150407
Heightened Def Con from 0.0150434 to 0.0150434
Heightened Def Con from 0.015044 to 0.015044
Heightened Def Con from 0.0150449 to 0.0150449
Heightened Def Con from 0.0150454 to 0.0150454
Heightened Def Con from 0.0150582 to 0.0150582
Heightened Def Con from 0.0150585 to 0.0150585
Heightened Def Con from 0.0150587 to 0.0150587
Heightened Def Con from 0.0150685 to 0.0150685
Heightened Def Con from 0.0150691 to 0.0150691
Heightened Def Con from 0.0150696 to 0.0150696
Heightened Def Con from 0.0150707 to 0.0150707
Heightened Def Con from 0.0150716 to 0.0150716
Heightened Def Con from 0.0150716 to 0.0150716
Heightened Def Con from 0.0150721 to 0.0150721
Heightened Def Con from 0.0150722 to 0.0150722
Heightened Def Con from 0.0150827 to 0.0150827
Heightened Def Con from 0.0150838 to 0.0150838
Heightened Def Con from 0.0150852 to 0.0150852
Heightened Def Con from 0.0150853 to 0.0150853
Heightened Def Con from 0.0150858 to 0.0150858
Heightened Def Con from 0.0150943 to 0.0150943
Heightened Def Con from 0.0150953 to 0.0150954
Heightened Def Con from 0.0150959 to 0.0150959
Heightened Def Con from 0.0150964 to 0.0150964
Heightened Def Con from 0.0150981 to 0.0150981
Heightened Def Con from 0.0150997 to 0.0150997
Heightened Def Con from 0.0151081 to 0.0151081
Heightened Def Con from 0.0151081 to 0.0151082
Heightened Def Con from 0.0151103 to 0.0151103
Heightened Def Con from 0.0151133 to 0.0151133
Heightened Def Con from 0.0151227 to 0.0151227
Heightened Def Con from 0.0151238 to 0.0151238
Heightened Def Con from 0.0151243 to 0.0151243
Heightened Def Con from 0.015126 to 0.015126
Heightened Def Con from 0.0151269 to 0.0151269
Heightened Def Con from 0.0151269 to 0.0151269
Heightened Def Con from 0.0151274 to 0.0151274
Heightened Def Con from 0.0151374 to 0.0151374
Heightened Def Con from 0.0151385 to 0.0151385
Heightened Def Con from 0.0151404 to 0.0151404
Heightened Def Con from 0.0151405 to 0.0151405
Heightened Def Con from 0.0151493 to 0.0151493
Heightened Def Con from 0.015153 to 0.015153
Heightened Def Con from 0.0161154 to 0.0161154
Heightened Def Con from 0.016295 to 0.016295
Heightened Def Con from 0.01647 to 0.0164701
Heightened Def Con from 0.0168133 to 0.0168133
Heightened Def Con from 0.0171548 to 0.0171548
Heightened Def Con from 0.0173264 to 0.0173264
Heightened Def Con from 0.0173279 to 0.0173279
Heightened Def Con from 0.0174967 to 0.0174967
Heightened Def Con from 0.0174978 to 0.0174978
Heightened Def Con from 0.0176708 to 0.0176708
Heightened Def Con from 0.0178422 to 0.0178422
Heightened Def Con from 0.0178423 to 0.0178423
Heightened Def Con from 0.018184 to 0.018184
Heightened Def Con from 0.0183561 to 0.0183561
Heightened Def Con from 0.0185287 to 0.0185287
Heightened Def Con from 0.0188722 to 0.0188722
Heightened Def Con from 0.019214 to 0.019214
Heightened Def Con from 0.0195563 to 0.0195563
Heightened Def Con from 0.0195569 to 0.0195569
Heightened Def Con from 0.0195583 to 0.0195583
Heightened Def Con from 0.0199013 to 0.0199013
Heightened Def Con from 0.0202443 to 0.0202443
Heightened Def Con from 0.0204159 to 0.0204159
Heightened Def Con from 0.0205873 to 0.0205873
Heightened Def Con from 0.0209306 to 0.0209306
Heightened Def Con from 0.0211026 to 0.0211027
Heightened Def Con from 0.0216174 to 0.0216174
Heightened Def Con from 0.0217875 to 0.0217875
Heightened Def Con from 0.0221296 to 0.0221296
Heightened Def Con from 0.022646 to 0.022646
Heightened Def Con from 0.0235027 to 0.0235027
Heightened Def Con from 0.0238461 to 0.0238461
Heightened Def Con from 0.0241908 to 0.0241908
Heightened Def Con from 0.0243622 to 0.0243622
Heightened Def Con from 0.0243627 to 0.0243627
Heightened Def Con from 0.0248762 to 0.0248762
Heightened Def Con from 0.0248763 to 0.0248763
Heightened Def Con from 0.0250027 to 0.0250027
Heightened Def Con from 0.0250043 to 0.0250043
Heightened Def Con from 0.0250049 to 0.0250049
Heightened Def Con from 0.0250143 to 0.0250143
Heightened Def Con from 0.0250154 to 0.0250154
Heightened Def Con from 0.0250159 to 0.0250159
Heightened Def Con from 0.025019 to 0.025019
Heightened Def Con from 0.025019 to 0.025019
Heightened Def Con from 0.0250195 to 0.0250196
Heightened Def Con from 0.0250196 to 0.0250196
Heightened Def Con from 0.0250283 to 0.0250283
Heightened Def Con from 0.0250288 to 0.0250288
Heightened Def Con from 0.0250304 to 0.0250304
Heightened Def Con from 0.025031 to 0.025031
Heightened Def Con from 0.0250319 to 0.0250319
Heightened Def Con from 0.0250324 to 0.0250324
Heightened Def Con from 0.0250325 to 0.0250325
Heightened Def Con from 0.0250441 to 0.0250441
Heightened Def Con from 0.0250449 to 0.0250449
Heightened Def Con from 0.0250455 to 0.0250455
Heightened Def Con from 0.0250535 to 0.0250535
Heightened Def Con from 0.0250546 to 0.0250546
Heightened Def Con from 0.0250552 to 0.0250552
Heightened Def Con from 0.0250557 to 0.0250557
Heightened Def Con from 0.0250562 to 0.0250562
Heightened Def Con from 0.0250583 to 0.0250583
Heightened Def Con from 0.025067 to 0.025067
Heightened Def Con from 0.0250692 to 0.0250692
Heightened Def Con from 0.0250697 to 0.0250697
Heightened Def Con from 0.0250697 to 0.0250697
Heightened Def Con from 0.0250708 to 0.0250708
Heightened Def Con from 0.0250717 to 0.0250717
Heightened Def Con from 0.025072 to 0.025072
Heightened Def Con from 0.0250806 to 0.0250806
Heightened Def Con from 0.0250817 to 0.0250817
Heightened Def Con from 0.0250854 to 0.0250854
Heightened Def Con from 0.0250859 to 0.0250859
Heightened Def Con from 0.0250955 +to 0.0250955
Heightened Def Con from 0.025096 to 0.025096
Heightened Def Con from 0.0250971 to 0.0250971
Heightened Def Con from 0.0250976 to 0.0250977
Heightened Def Con from 0.0250982 to 0.0250982
Heightened Def Con from 0.0250991 to 0.0250991
Heightened Def Con from 0.0250996 to 0.0250996
Heightened Def Con from 0.0250997 to 0.0250997
Heightened Def Con from 0.0251099 to 0.0251099
Heightened Def Con from 0.025113 to 0.025113
Heightened Def Con from 0.0251135 to 0.0251135
Heightened Def Con from 0.0251223 to 0.0251223
Heightened Def Con from 0.0251239 to 0.025124
Heightened Def Con from 0.025125 to 0.025125
Heightened Def Con from 0.0251256 to 0.0251256
Heightened Def Con from 0.0251265 to 0.0251265
Heightened Def Con from 0.025127 to 0.025127
Heightened Def Con from 0.0251271 to 0.0251271
Heightened Def Con from 0.0251395 to 0.0251395
Heightened Def Con from 0.02514 to 0.02514
Heightened Def Con from 0.0251499 to 0.0251499
Heightened Def Con from 0.0251515 to 0.0251515
Heightened Def Con from 0.0262974 to 0.0262974
Heightened Def Con from 0.0268163 to 0.0268163
Heightened Def Con from 0.0268169 to 0.0268169
Heightened Def Con from 0.0269862 to 0.0269862
Heightened Def Con from 0.0271592 to 0.0271592
Heightened Def Con from 0.0273308 to 0.0273308
Heightened Def Con from 0.0273308 to 0.0273308
Heightened Def Con from 0.0275021 to 0.0275021
Heightened Def Con from 0.0276741 to 0.0276741
Heightened Def Con from 0.0278437 to 0.0278437
Heightened Def Con from 0.0281871 to 0.0281871
Heightened Def Con from 0.0281891 to 0.0281891
Heightened Def Con from 0.0283601 to 0.0283601
Heightened Def Con from 0.0287031 to 0.0287031
Heightened Def Con from 0.0287032 to 0.0287032
Heightened Def Con from 0.0288744 to 0.0288745
Heightened Def Con from 0.0293884 to 0.0293884
Heightened Def Con from 0.0295596 to 0.0295596
Heightened Def Con from 0.0295611 to 0.0295611
Heightened Def Con from 0.0299047 to 0.0299047
Heightened Def Con from 0.0300759 to 0.0300759
Heightened Def Con from 0.0302458 to 0.0302458
Heightened Def Con from 0.030932 to 0.030932
Heightened Def Con from 0.0309335 to 0.0309335
Heightened Def Con from 0.0311049 to 0.0311049
Heightened Def Con from 0.0312767 to 0.0312767
Heightened Def Con from 0.0319618 to 0.0319618
Heightened Def Con from 0.032991 to 0.032991
Heightened Def Con from 0.033164 to 0.0331641
Heightened Def Con from 0.0345366 to 0.0345366
Heightened Def Con from 0.034708 to 0.034708
Heightened Def Con from 0.0348777 to 0.0348777
Heightened Def Con from 0.0350044 to 0.0350044
Heightened Def Con from 0.0350049 to 0.0350049
Heightened Def Con from 0.0350064 to 0.0350064
Heightened Def Con from 0.0350069 to 0.0350069
Heightened Def Con from 0.035007 to 0.035007
Heightened Def Con from 0.0350149 to 0.0350149
Heightened Def Con from 0.0350155 to 0.0350155
Heightened Def Con from 0.035016 to 0.035016
Heightened Def Con from 0.0350166 to 0.0350166
Heightened Def Con from 0.0350171 to 0.0350171
Heightened Def Con from 0.0350191 to 0.0350191
Heightened Def Con from 0.0350194 to 0.0350194
Heightened Def Con from 0.0350196 to 0.0350196
Heightened Def Con from 0.0350197 to 0.0350197
Heightened Def Con from 0.035032 to 0.035032
Heightened Def Con from 0.0350409 to 0.0350409
Heightened Def Con from 0.0350431 to 0.0350431
Heightened Def Con from 0.0350451 to 0.0350451
Heightened Def Con from 0.0350451 to 0.0350451
Heightened Def Con from 0.0350456 to 0.0350456
Heightened Def Con from 0.0350457 to 0.0350457
Heightened Def Con from 0.0350537 to 0.0350537
Heightened Def Con from 0.0350542 to 0.0350542
Heightened Def Con from 0.0350564 to 0.0350564
Heightened Def Con from 0.0350583 to 0.0350583
Heightened Def Con from 0.0350718 to 0.0350718
Heightened Def Con from 0.0350719 to 0.0350719
Heightened Def Con from 0.0350808 to 0.0350808
Heightened Def Con from 0.035084 to 0.035084
Heightened Def Con from 0.0350846 to 0.0350846
Heightened Def Con from 0.0350855 to 0.0350855
Heightened Def Con from 0.035086 to 0.035086
Heightened Def Con from 0.0350861 to 0.0350861
Heightened Def Con from 0.0350951 to 0.0350951
Heightened Def Con from 0.0350967 to 0.0350967
Heightened Def Con from 0.0350984 to 0.0350984
Heightened Def Con from 0.0350993 to 0.0350993
Heightened Def Con from 0.0350998 to 0.0350998
Heightened Def Con from 0.0350999 to 0.0350999
Heightened Def Con from 0.0351112 to 0.0351112
Heightened Def Con from 0.0351131 to 0.0351131
Heightened Def Con from 0.0351137 to 0.0351137
Heightened Def Con from 0.0351225 to 0.0351225
Heightened Def Con from 0.0351252 to 0.0351252
Heightened Def Con from 0.0351266 to 0.0351266
Heightened Def Con from 0.0351267 to 0.0351267
Heightened Def Con from 0.0351272 to 0.0351272
Heightened Def Con from 0.0351382 to 0.0351382
Heightened Def Con from 0.0351387 to 0.0351387
Heightened Def Con from 0.0351397 to 0.0351397
Heightened Def Con from 0.0351399 to 0.0351399
Heightened Def Con from 0.0351402 to 0.0351402
Heightened Def Con from 0.0351495 to 0.0351495
Heightened Def Con from 0.0359336 to 0.0359336
Heightened Def Con from 0.0361204 to 0.0361204
Heightened Def Con from 0.0368199 to 0.0368199
Heightened Def Con from 0.036992 to 0.036992
Heightened Def Con from 0.0371625 to 0.0371625
Heightened Def Con from 0.0373352 to 0.0373352
Heightened Def Con from 0.0375047 to 0.0375047
Heightened Def Con from 0.0375053 to 0.0375053
Heightened Def Con from 0.0376766 to 0.0376766
Heightened Def Con from 0.0378483 to 0.0378483
Heightened Def Con from 0.0380213 to 0.0380213
Heightened Def Con from 0.0381909 to 0.0381909
Heightened Def Con from 0.0381915 to 0.0381915
Heightened Def Con from 0.0385345 to 0.0385345
Heightened Def Con from 0.0390506 to 0.0390506
Heightened Def Con from 0.0393922 to 0.0393923
Heightened Def Con from 0.0393937 to 0.0393937
Heightened Def Con from 0.0395638 to 0.0395638
Heightened Def Con from 0.0395653 to 0.0395653
Heightened Def Con from 0.0397352 to 0.0397352
Heightened Def Con from 0.0400781 to 0.0400781
Heightened Def Con from 0.0402491 to 0.0402491
Heightened Def Con from 0.0404235 to 0.0404235
Heightened Def Con from 0.0405944 to 0.0405944
Heightened Def Con from 0.0411075 to 0.0411075
Heightened Def Con from 0.0417961 to 0.0417961
Heightened Def Con from 0.0419681 to 0.0419681
Heightened Def Con from 0.0421396 to 0.0421396
Heightened Def Con from 0.0428261 to 0.0428261
Heightened Def Con from 0.0431695 to 0.0431695
Heightened Def Con from 0.0450023 to 0.0450023
Heightened Def Con from 0.0450028 to 0.0450028
Heightened Def Con from 0.045005 to 0.045005
Heightened Def Con from 0.0450064 to 0.0450064
Heightened Def Con from 0.0450065 to 0.0450065
Heightened Def Con from 0.0450155 to 0.0450155
Heightened Def Con from 0.0450166 to 0.0450166
Heightened Def Con from 0.0450192 to 0.0450192
Heightened Def Con from 0.0450192 to 0.0450192
Heightened Def Con from 0.0450197 to 0.0450197
Heightened Def Con from 0.0450198 to 0.0450198
Heightened Def Con from 0.0450279 to 0.0450279
Heightened Def Con from 0.0450321 to 0.0450321
Heightened Def Con from 0.0450322 to 0.0450322
Heightened Def Con from 0.0450322 to 0.0450322
Heightened Def Con from 0.0450405 to 0.0450405
Heightened Def Con from 0.0450411 to 0.0450411
Heightened Def Con from 0.0450422 to 0.0450422
Heightened Def Con from 0.0450427 to 0.0450427
Heightened Def Con from 0.0450452 to 0.0450452
Heightened Def Con from 0.0450458 to 0.0450458
Heightened Def Con from 0.0450539 to 0.0450539
Heightened Def Con from 0.0450549 to 0.0450549
Heightened Def Con from 0.0450555 to 0.0450555
Heightened Def Con from 0.0450571 to 0.0450571
Heightened Def Con from 0.0450586 to 0.0450586
Heightened Def Con from 0.0450586 to 0.0450586
Heightened Def Con from 0.0450701 to 0.0450701
Heightened Def Con from 0.045072 to 0.045072
Heightened Def Con from 0.0450721 to 0.0450721
Heightened Def Con from 0.0450727 to 0.0450727
Heightened Def Con from 0.045081 to 0.045081
Heightened Def Con from 0.0450837 to 0.0450837
Heightened Def Con from 0.0450843 to 0.0450843
Heightened Def Con from 0.0450858 to 0.0450858
Heightened Def Con from 0.0450863 to 0.0450863
Heightened Def Con from 0.0450948 to 0.0450948
Heightened Def Con from 0.0450959 to 0.0450959
Heightened Def Con from 0.045097 to 0.045097
Heightened Def Con from 0.0450986 to 0.0450986
Heightened Def Con from 0.0450996 to 0.0450996
Heightened Def Con from 0.0450996 to 0.0450996
Heightened Def Con from 0.0451001 to 0.0451001
Heightened Def Con from 0.0451001 to 0.0451001
Heightened Def Con from 0.0451093 to 0.0451093
Heightened Def Con from 0.0451109 to 0.0451109
Heightened Def Con from 0.045112 to 0.045112
Heightened Def Con from 0.0451125 to 0.0451125
Heightened Def Con from 0.0451135 to 0.0451135
Heightened Def Con from 0.045114 to 0.045114
Heightened Def Con from 0.045114 to 0.045114
Heightened Def Con from 0.0451244 to 0.0451244
Heightened Def Con from 0.0451255 to 0.0451255
Heightened Def Con from 0.0451275 to 0.0451275
Heightened Def Con from 0.0451275 to 0.0451275
Heightened Def Con from 0.045128 to 0.045128
Heightened Def Con from 0.0451281 to 0.0451281
Heightened Def Con from 0.0451375 to 0.0451375
Heightened Def Con from 0.0451391 to 0.0451391
Heightened Def Con from 0.0451411 to 0.0451411
Heightened Def Con from 0.0451411 to 0.0451411
Heightened Def Con from 0.0451416 to 0.0451416
Heightened Def Con from 0.0461308 to 0.0461308
Heightened Def Con from 0.046308 to 0.046308
Heightened Def Con from 0.0466562 to 0.0466562
Heightened Def Con from 0.0466562 to 0.0466562
Heightened Def Con from 0.0468262 to 0.0468262
Heightened Def Con from 0.047341 to 0.047341
Heightened Def Con from 0.0475125 to 0.0475125
Heightened Def Con from 0.0478558 to 0.0478558
Heightened Def Con from 0.0480269 to 0.0480269
Heightened Def Con from 0.0480274 to 0.0480274
Heightened Def Con from 0.0481989 to 0.0481989
Heightened Def Con from 0.0482003 to 0.0482003
Heightened Def Con from 0.0483721 to 0.0483721
Heightened Def Con from 0.0485439 to 0.0485439
Heightened Def Con from 0.0485444 to 0.0485444
Heightened Def Con from 0.0488858 to 0.0488858
Heightened Def Con from 0.0490583 to 0.0490583
Heightened Def Con from 0.0492299 to 0.0492299
Heightened Def Con from 0.049573 to 0.049573
Heightened Def Con from 0.0497432 to 0.0497432
Heightened Def Con from 0.0499139 to 0.0499139
Heightened Def Con from 0.0500875 to 0.0500875
Heightened Def Con from 0.0504304 to 0.0504304
Heightened Def Con from 0.0509452 to 0.0509452
Heightened Def Con from 0.0509452 to 0.0509452
Heightened Def Con from 0.0518033 to 0.0518033
Heightened Def Con from 0.0519734 to 0.0519734
Heightened Def Con from 0.0524877 to 0.0524877
Heightened Def Con from 0.0524897 to 0.0524897
Heightened Def Con from 0.0526587 to 0.0526587
Heightened Def Con from 0.0526655 to 0.0526655

Date: Mon Feb 06 14:22:57 2017
Total elapsed time: 150.487 seconds.

tnom = 27
temp = 27
method = modified trap
totiter = 9335532
traniter = 9335508
tranpoints = 2823883
accept = 2026007
rejected = 801835
matrix size = 58
fillins = 20
solver = Normal
Thread vector: 15.1/11.5[2] 6.2/4.0[2] 2.1/1.5[2] 0.2/0.4[1]  2592/500
Matrix Compiler1:     229 opcodes  1.0/[0.6]/0.9
Matrix Compiler2: 4.54 KB object code size  0.6/1.4/[0.4]


